1qkt_119
  -OEChem-01202217033D

 44 47  0     1  0  0  0  0  0999 V2000
    1.2067   52.6627  165.6479 C   0  0  0  0  0  0  0  0  0  0  0  0
    2.5960   52.5508  165.5143 C   0  0  0  0  0  0  0  0  0  0  0  0
    3.2132   51.2789  165.5664 C   0  0  0  0  0  0  0  0  0  0  0  0
    4.5845   51.1961  165.4306 O   0  0  0  0  0  0  0  0  0  0  0  0
    2.4369   50.1058  165.7565 C   0  0  0  0  0  0  0  0  0  0  0  0
    1.0055   50.2036  165.9015 C   0  0  0  0  0  0  0  0  0  0  0  0
    0.1698   48.9299  166.1234 C   0  0  0  0  0  0  0  0  0  0  0  0
   -1.3583   49.1568  166.3055 C   0  0  0  0  0  0  0  0  0  0  0  0
   -1.8987   50.3544  165.5195 C   0  0  2  0  0  0  0  0  0  0  0  0
   -1.1448   51.6520  165.9832 C   0  0  1  0  0  0  0  0  0  0  0  0
    0.3800   51.5134  165.8388 C   0  0  0  0  0  0  0  0  0  0  0  0
   -1.7103   52.8485  165.1911 C   0  0  0  0  0  0  0  0  0  0  0  0
   -3.2297   53.0395  165.2994 C   0  0  0  0  0  0  0  0  0  0  0  0
   -4.0049   51.7767  164.8995 C   0  0  1  0  0  0  0  0  0  0  0  0
   -3.4519   50.5770  165.7396 C   0  0  1  0  0  0  0  0  0  0  0  0
   -4.4792   49.4993  165.4025 C   0  0  0  0  0  0  0  0  0  0  0  0
   -5.8504   50.2502  165.5494 C   0  0  0  0  0  0  0  0  0  0  0  0
   -5.5018   51.7518  165.3256 C   0  0  2  0  0  0  0  0  0  0  0  0
   -6.4453   52.3377  164.3650 O   0  0  0  0  0  0  0  0  0  0  0  0
   -3.9189   51.5478  163.3452 C   0  0  0  0  0  0  0  0  0  0  0  0
    0.7479   53.6440  165.6055 H   0  0  0  0  0  0  0  0  0  0  0  0
    3.1995   53.4398  165.3707 H   0  0  0  0  0  0  0  0  0  0  0  0
    4.8250   50.3084  165.1929 H   0  0  0  0  0  0  0  0  0  0  0  0
    2.9203   49.1362  165.7926 H   0  0  0  0  0  0  0  0  0  0  0  0
    0.5483   48.4289  167.0265 H   0  0  0  0  0  0  0  0  0  0  0  0
    0.3138   48.2737  165.2524 H   0  0  0  0  0  0  0  0  0  0  0  0
   -1.5602   49.3227  167.3740 H   0  0  0  0  0  0  0  0  0  0  0  0
   -1.8866   48.2528  165.9684 H   0  0  0  0  0  0  0  0  0  0  0  0
   -1.7135   50.1847  164.4486 H   0  0  0  0  0  0  0  0  0  0  0  0
   -1.3612   51.8143  167.0494 H   0  0  0  0  0  0  0  0  0  0  0  0
   -1.4595   52.7042  164.1299 H   0  0  0  0  0  0  0  0  0  0  0  0
   -1.2244   53.7631  165.5617 H   0  0  0  0  0  0  0  0  0  0  0  0
   -3.5309   53.8641  164.6366 H   0  0  0  0  0  0  0  0  0  0  0  0
   -3.4812   53.2945  166.3394 H   0  0  0  0  0  0  0  0  0  0  0  0
   -3.5590   50.8045  166.8105 H   0  0  0  0  0  0  0  0  0  0  0  0
   -4.4134   48.6575  166.1075 H   0  0  0  0  0  0  0  0  0  0  0  0
   -4.3403   49.1295  164.3758 H   0  0  0  0  0  0  0  0  0  0  0  0
   -6.2727   50.0949  166.5532 H   0  0  0  0  0  0  0  0  0  0  0  0
   -6.5676   49.9010  164.7919 H   0  0  0  0  0  0  0  0  0  0  0  0
   -5.6037   52.3015  166.2729 H   0  0  0  0  0  0  0  0  0  0  0  0
   -6.1670   53.2196  164.1472 H   0  0  0  0  0  0  0  0  0  0  0  0
   -2.8651   51.5630  163.0302 H   0  0  0  0  0  0  0  0  0  0  0  0
   -4.4684   52.3468  162.8260 H   0  0  0  0  0  0  0  0  0  0  0  0
   -4.3630   50.5736  163.0928 H   0  0  0  0  0  0  0  0  0  0  0  0
  1  2  2  0  0  0  0
  1 11  1  0  0  0  0
  2  3  1  0  0  0  0
  3  4  1  0  0  0  0
  3  5  2  0  0  0  0
  5  6  1  0  0  0  0
  6  7  1  0  0  0  0
  6 11  2  0  0  0  0
  7  8  1  0  0  0  0
  8  9  1  0  0  0  0
  9 10  1  0  0  0  0
  9 15  1  0  0  0  0
 10 11  1  0  0  0  0
 10 12  1  0  0  0  0
 12 13  1  0  0  0  0
 13 14  1  0  0  0  0
 14 15  1  0  0  0  0
 14 18  1  0  0  0  0
 14 20  1  0  0  0  0
 15 16  1  0  0  0  0
 16 17  1  0  0  0  0
 17 18  1  0  0  0  0
 18 19  1  0  0  0  0
  1 21  1  0  0  0  0
  2 22  1  0  0  0  0
  4 23  1  0  0  0  0
  5 24  1  0  0  0  0
  7 25  1  0  0  0  0
  7 26  1  0  0  0  0
  8 27  1  0  0  0  0
  8 28  1  0  0  0  0
  9 29  1  0  0  0  0
 10 30  1  0  0  0  0
 12 31  1  0  0  0  0
 12 32  1  0  0  0  0
 13 33  1  0  0  0  0
 13 34  1  0  0  0  0
 15 35  1  0  0  0  0
 16 36  1  0  0  0  0
 16 37  1  0  0  0  0
 17 38  1  0  0  0  0
 17 39  1  0  0  0  0
 18 40  1  0  0  0  0
 19 41  1  0  0  0  0
 20 42  1  0  0  0  0
 20 43  1  0  0  0  0
 20 44  1  0  0  0  0
M  END
$$$$
1qkt_132
  -OEChem-01202217033D

 44 47  0     1  0  0  0  0  0999 V2000
    1.4118   52.8023  165.5419 C   0  0  0  0  0  0  0  0  0  0  0  0
    2.7980   52.6056  165.5602 C   0  0  0  0  0  0  0  0  0  0  0  0
    3.3299   51.2979  165.4689 C   0  0  0  0  0  0  0  0  0  0  0  0
    4.7001   51.1316  165.4878 O   0  0  0  0  0  0  0  0  0  0  0  0
    2.4701   50.1736  165.3607 C   0  0  0  0  0  0  0  0  0  0  0  0
    1.0399   50.3579  165.3460 C   0  0  0  0  0  0  0  0  0  0  0  0
    0.1114   49.1341  165.2445 C   0  0  0  0  0  0  0  0  0  0  0  0
   -1.4120   49.4469  165.2765 C   0  0  0  0  0  0  0  0  0  0  0  0
   -1.7750   50.7944  164.6469 C   0  0  2  0  0  0  0  0  0  0  0  0
   -1.0169   51.9370  165.4129 C   0  0  1  0  0  0  0  0  0  0  0  0
    0.5034   51.7052  165.4325 C   0  0  0  0  0  0  0  0  0  0  0  0
   -1.4039   53.2864  164.7741 C   0  0  0  0  0  0  0  0  0  0  0  0
   -2.9111   53.5752  164.7287 C   0  0  0  0  0  0  0  0  0  0  0  0
   -3.6967   52.4581  164.0284 C   0  0  1  0  0  0  0  0  0  0  0  0
   -3.3285   51.0988  164.7122 C   0  0  1  0  0  0  0  0  0  0  0  0
   -4.3616   50.1733  164.0744 C   0  0  0  0  0  0  0  0  0  0  0  0
   -5.6955   50.9950  164.1803 C   0  0  0  0  0  0  0  0  0  0  0  0
   -5.2359   52.4813  164.2598 C   0  0  2  0  0  0  0  0  0  0  0  0
   -6.0092   53.2868  163.3063 O   0  0  0  0  0  0  0  0  0  0  0  0
   -3.4190   52.4781  162.4799 C   0  0  0  0  0  0  0  0  0  0  0  0
    1.0189   53.8102  165.6124 H   0  0  0  0  0  0  0  0  0  0  0  0
    3.4645   53.4564  165.6445 H   0  0  0  0  0  0  0  0  0  0  0  0
    4.9229   50.3019  165.0823 H   0  0  0  0  0  0  0  0  0  0  0  0
    2.8887   49.1763  165.2890 H   0  0  0  0  0  0  0  0  0  0  0  0
    0.3381   48.4654  166.0880 H   0  0  0  0  0  0  0  0  0  0  0  0
    0.3320   48.6185  164.2983 H   0  0  0  0  0  0  0  0  0  0  0  0
   -1.7438   49.4527  166.3253 H   0  0  0  0  0  0  0  0  0  0  0  0
   -1.9414   48.6534  164.7287 H   0  0  0  0  0  0  0  0  0  0  0  0
   -1.4597   50.7865  163.5931 H   0  0  0  0  0  0  0  0  0  0  0  0
   -1.3628   51.9408  166.4570 H   0  0  0  0  0  0  0  0  0  0  0  0
   -1.0235   53.2969  163.7421 H   0  0  0  0  0  0  0  0  0  0  0  0
   -0.9203   54.0882  165.3513 H   0  0  0  0  0  0  0  0  0  0  0  0
   -3.0747   54.5172  164.1849 H   0  0  0  0  0  0  0  0  0  0  0  0
   -3.2830   53.6771  165.7589 H   0  0  0  0  0  0  0  0  0  0  0  0
   -3.5633   51.1575  165.7852 H   0  0  0  0  0  0  0  0  0  0  0  0
   -4.4373   49.2259  164.6281 H   0  0  0  0  0  0  0  0  0  0  0  0
   -4.1093   49.9650  163.0241 H   0  0  0  0  0  0  0  0  0  0  0  0
   -6.2549   50.7126  165.0843 H   0  0  0  0  0  0  0  0  0  0  0  0
   -6.3247   50.8301  163.2932 H   0  0  0  0  0  0  0  0  0  0  0  0
   -5.4309   52.8765  165.2677 H   0  0  0  0  0  0  0  0  0  0  0  0
   -5.6417   54.1616  163.2612 H   0  0  0  0  0  0  0  0  0  0  0  0
   -2.3336   52.4619  162.3019 H   0  0  0  0  0  0  0  0  0  0  0  0
   -3.8488   53.3910  162.0421 H   0  0  0  0  0  0  0  0  0  0  0  0
   -3.8802   51.5952  162.0132 H   0  0  0  0  0  0  0  0  0  0  0  0
  1  2  2  0  0  0  0
  1 11  1  0  0  0  0
  2  3  1  0  0  0  0
  3  4  1  0  0  0  0
  3  5  2  0  0  0  0
  5  6  1  0  0  0  0
  6  7  1  0  0  0  0
  6 11  2  0  0  0  0
  7  8  1  0  0  0  0
  8  9  1  0  0  0  0
  9 10  1  0  0  0  0
  9 15  1  0  0  0  0
 10 11  1  0  0  0  0
 10 12  1  0  0  0  0
 12 13  1  0  0  0  0
 13 14  1  0  0  0  0
 14 15  1  0  0  0  0
 14 18  1  0  0  0  0
 14 20  1  0  0  0  0
 15 16  1  0  0  0  0
 16 17  1  0  0  0  0
 17 18  1  0  0  0  0
 18 19  1  0  0  0  0
  1 21  1  0  0  0  0
  2 22  1  0  0  0  0
  4 23  1  0  0  0  0
  5 24  1  0  0  0  0
  7 25  1  0  0  0  0
  7 26  1  0  0  0  0
  8 27  1  0  0  0  0
  8 28  1  0  0  0  0
  9 29  1  0  0  0  0
 10 30  1  0  0  0  0
 12 31  1  0  0  0  0
 12 32  1  0  0  0  0
 13 33  1  0  0  0  0
 13 34  1  0  0  0  0
 15 35  1  0  0  0  0
 16 36  1  0  0  0  0
 16 37  1  0  0  0  0
 17 38  1  0  0  0  0
 17 39  1  0  0  0  0
 18 40  1  0  0  0  0
 19 41  1  0  0  0  0
 20 42  1  0  0  0  0
 20 43  1  0  0  0  0
 20 44  1  0  0  0  0
M  END
$$$$
1qkt_144
  -OEChem-01202217033D

 44 47  0     1  0  0  0  0  0999 V2000
    0.5183   52.0566  164.5353 C   0  0  0  0  0  0  0  0  0  0  0  0
    1.9008   52.1425  164.3302 C   0  0  0  0  0  0  0  0  0  0  0  0
    2.7461   51.0864  164.7442 C   0  0  0  0  0  0  0  0  0  0  0  0
    4.1053   51.1955  164.5290 O   0  0  0  0  0  0  0  0  0  0  0  0
    2.2074   49.9329  165.3721 C   0  0  0  0  0  0  0  0  0  0  0  0
    0.7865   49.8307  165.5961 C   0  0  0  0  0  0  0  0  0  0  0  0
    0.2090   48.5847  166.2919 C   0  0  0  0  0  0  0  0  0  0  0  0
   -1.3301   48.5982  166.5167 C   0  0  0  0  0  0  0  0  0  0  0  0
   -2.1023   49.3510  165.4299 C   0  0  2  0  0  0  0  0  0  0  0  0
   -1.5946   50.8364  165.3783 C   0  0  1  0  0  0  0  0  0  0  0  0
   -0.0742   50.9169  165.1604 C   0  0  0  0  0  0  0  0  0  0  0  0
   -2.3913   51.5819  164.2883 C   0  0  0  0  0  0  0  0  0  0  0  0
   -3.9168   51.5387  164.4545 C   0  0  0  0  0  0  0  0  0  0  0  0
   -4.4506   50.1033  164.5565 C   0  0  1  0  0  0  0  0  0  0  0  0
   -3.6645   49.3691  165.6939 C   0  0  1  0  0  0  0  0  0  0  0  0
   -4.4792   48.0837  165.8154 C   0  0  0  0  0  0  0  0  0  0  0  0
   -5.9631   48.5971  165.8222 C   0  0  0  0  0  0  0  0  0  0  0  0
   -5.9067   49.9712  165.0907 C   0  0  2  0  0  0  0  0  0  0  0  0
   -6.9641   50.0305  164.0735 O   0  0  0  0  0  0  0  0  0  0  0  0
   -4.3576   49.3817  163.1614 C   0  0  0  0  0  0  0  0  0  0  0  0
   -0.1168   52.8736  164.2124 H   0  0  0  0  0  0  0  0  0  0  0  0
    2.3239   53.0193  163.8535 H   0  0  0  0  0  0  0  0  0  0  0  0
    4.5353   50.3989  164.8171 H   0  0  0  0  0  0  0  0  0  0  0  0
    2.8643   49.1288  165.6833 H   0  0  0  0  0  0  0  0  0  0  0  0
    0.6944   48.4892  167.2744 H   0  0  0  0  0  0  0  0  0  0  0  0
    0.4540   47.7075  165.6751 H   0  0  0  0  0  0  0  0  0  0  0  0
   -1.5359   49.0781  167.4849 H   0  0  0  0  0  0  0  0  0  0  0  0
   -1.6873   47.5581  166.5396 H   0  0  0  0  0  0  0  0  0  0  0  0
   -1.9123   48.8639  164.4621 H   0  0  0  0  0  0  0  0  0  0  0  0
   -1.8139   51.3098  166.3467 H   0  0  0  0  0  0  0  0  0  0  0  0
   -2.1413   51.1327  163.3158 H   0  0  0  0  0  0  0  0  0  0  0  0
   -2.0770   52.6360  164.2969 H   0  0  0  0  0  0  0  0  0  0  0  0
   -4.3815   52.0280  163.5858 H   0  0  0  0  0  0  0  0  0  0  0  0
   -4.1886   52.0832  165.3708 H   0  0  0  0  0  0  0  0  0  0  0  0
   -3.7887   49.9229  166.6361 H   0  0  0  0  0  0  0  0  0  0  0  0
   -4.2414   47.5530  166.7491 H   0  0  0  0  0  0  0  0  0  0  0  0
   -4.2962   47.4185  164.9586 H   0  0  0  0  0  0  0  0  0  0  0  0
   -6.3266   48.7206  166.8530 H   0  0  0  0  0  0  0  0  0  0  0  0
   -6.6188   47.8971  165.2835 H   0  0  0  0  0  0  0  0  0  0  0  0
   -6.0887   50.7826  165.8108 H   0  0  0  0  0  0  0  0  0  0  0  0
   -6.9797   49.2150  163.5866 H   0  0  0  0  0  0  0  0  0  0  0  0
   -3.3325   49.4675  162.7719 H   0  0  0  0  0  0  0  0  0  0  0  0
   -5.0582   49.8538  162.4570 H   0  0  0  0  0  0  0  0  0  0  0  0
   -4.6170   48.3194  163.2801 H   0  0  0  0  0  0  0  0  0  0  0  0
  1  2  2  0  0  0  0
  1 11  1  0  0  0  0
  2  3  1  0  0  0  0
  3  4  1  0  0  0  0
  3  5  2  0  0  0  0
  5  6  1  0  0  0  0
  6  7  1  0  0  0  0
  6 11  2  0  0  0  0
  7  8  1  0  0  0  0
  8  9  1  0  0  0  0
  9 10  1  0  0  0  0
  9 15  1  0  0  0  0
 10 11  1  0  0  0  0
 10 12  1  0  0  0  0
 12 13  1  0  0  0  0
 13 14  1  0  0  0  0
 14 15  1  0  0  0  0
 14 18  1  0  0  0  0
 14 20  1  0  0  0  0
 15 16  1  0  0  0  0
 16 17  1  0  0  0  0
 17 18  1  0  0  0  0
 18 19  1  0  0  0  0
  1 21  1  0  0  0  0
  2 22  1  0  0  0  0
  4 23  1  0  0  0  0
  5 24  1  0  0  0  0
  7 25  1  0  0  0  0
  7 26  1  0  0  0  0
  8 27  1  0  0  0  0
  8 28  1  0  0  0  0
  9 29  1  0  0  0  0
 10 30  1  0  0  0  0
 12 31  1  0  0  0  0
 12 32  1  0  0  0  0
 13 33  1  0  0  0  0
 13 34  1  0  0  0  0
 15 35  1  0  0  0  0
 16 36  1  0  0  0  0
 16 37  1  0  0  0  0
 17 38  1  0  0  0  0
 17 39  1  0  0  0  0
 18 40  1  0  0  0  0
 19 41  1  0  0  0  0
 20 42  1  0  0  0  0
 20 43  1  0  0  0  0
 20 44  1  0  0  0  0
M  END
$$$$
1qkt_150
  -OEChem-01202217033D

 44 47  0     1  0  0  0  0  0999 V2000
    0.4964   52.7922  164.9424 C   0  0  0  0  0  0  0  0  0  0  0  0
    1.8693   53.0369  164.8155 C   0  0  0  0  0  0  0  0  0  0  0  0
    2.8048   52.0563  165.2213 C   0  0  0  0  0  0  0  0  0  0  0  0
    4.1525   52.3220  165.0842 O   0  0  0  0  0  0  0  0  0  0  0  0
    2.3668   50.8191  165.7621 C   0  0  0  0  0  0  0  0  0  0  0  0
    0.9566   50.5531  165.9050 C   0  0  0  0  0  0  0  0  0  0  0  0
    0.4870   49.2162  166.5068 C   0  0  0  0  0  0  0  0  0  0  0  0
   -1.0532   49.0524  166.6499 C   0  0  0  0  0  0  0  0  0  0  0  0
   -1.8509   49.7765  165.5620 C   0  0  2  0  0  0  0  0  0  0  0  0
   -1.5074   51.3084  165.6108 C   0  0  1  0  0  0  0  0  0  0  0  0
    0.0036   51.5631  165.4782 C   0  0  0  0  0  0  0  0  0  0  0  0
   -2.3284   52.0229  164.5181 C   0  0  0  0  0  0  0  0  0  0  0  0
   -3.8462   51.8074  164.6007 C   0  0  0  0  0  0  0  0  0  0  0  0
   -4.2235   50.3197  164.6033 C   0  0  1  0  0  0  0  0  0  0  0  0
   -3.4164   49.6127  165.7432 C   0  0  1  0  0  0  0  0  0  0  0  0
   -4.0899   48.2427  165.7577 C   0  0  0  0  0  0  0  0  0  0  0  0
   -5.6199   48.5930  165.7110 C   0  0  0  0  0  0  0  0  0  0  0  0
   -5.6799   50.0033  165.0522 C   0  0  2  0  0  0  0  0  0  0  0  0
   -6.6880   50.0046  163.9844 O   0  0  0  0  0  0  0  0  0  0  0  0
   -3.9857   49.6897  163.1813 C   0  0  0  0  0  0  0  0  0  0  0  0
   -0.2085   53.5529  164.6269 H   0  0  0  0  0  0  0  0  0  0  0  0
    2.2158   53.9787  164.4058 H   0  0  0  0  0  0  0  0  0  0  0  0
    4.2730   53.0293  164.4617 H   0  0  0  0  0  0  0  0  0  0  0  0
    3.0925   50.0741  166.0677 H   0  0  0  0  0  0  0  0  0  0  0  0
    0.9328   49.1196  167.5078 H   0  0  0  0  0  0  0  0  0  0  0  0
    0.8558   48.4054  165.8613 H   0  0  0  0  0  0  0  0  0  0  0  0
   -1.3561   49.4537  167.6282 H   0  0  0  0  0  0  0  0  0  0  0  0
   -1.2947   47.9803  166.6024 H   0  0  0  0  0  0  0  0  0  0  0  0
   -1.5629   49.3663  164.5829 H   0  0  0  0  0  0  0  0  0  0  0  0
   -1.8230   51.7018  166.5883 H   0  0  0  0  0  0  0  0  0  0  0  0
   -1.9849   51.6570  163.5393 H   0  0  0  0  0  0  0  0  0  0  0  0
   -2.1326   53.1025  164.5953 H   0  0  0  0  0  0  0  0  0  0  0  0
   -4.3200   52.2910  163.7337 H   0  0  0  0  0  0  0  0  0  0  0  0
   -4.2192   52.2686  165.5270 H   0  0  0  0  0  0  0  0  0  0  0  0
   -3.6452   50.0975  166.7037 H   0  0  0  0  0  0  0  0  0  0  0  0
   -3.8399   47.6902  166.6754 H   0  0  0  0  0  0  0  0  0  0  0  0
   -3.7946   47.6488  164.8802 H   0  0  0  0  0  0  0  0  0  0  0  0
   -6.0432   48.6202  166.7259 H   0  0  0  0  0  0  0  0  0  0  0  0
   -6.1684   47.8574  165.1045 H   0  0  0  0  0  0  0  0  0  0  0  0
   -5.9839   50.7499  165.8007 H   0  0  0  0  0  0  0  0  0  0  0  0
   -6.5769   49.2309  163.4446 H   0  0  0  0  0  0  0  0  0  0  0  0
   -2.9589   49.9061  162.8515 H   0  0  0  0  0  0  0  0  0  0  0  0
   -4.6997   50.1219  162.4648 H   0  0  0  0  0  0  0  0  0  0  0  0
   -4.1322   48.6008  163.2334 H   0  0  0  0  0  0  0  0  0  0  0  0
  1  2  2  0  0  0  0
  1 11  1  0  0  0  0
  2  3  1  0  0  0  0
  3  4  1  0  0  0  0
  3  5  2  0  0  0  0
  5  6  1  0  0  0  0
  6  7  1  0  0  0  0
  6 11  2  0  0  0  0
  7  8  1  0  0  0  0
  8  9  1  0  0  0  0
  9 10  1  0  0  0  0
  9 15  1  0  0  0  0
 10 11  1  0  0  0  0
 10 12  1  0  0  0  0
 12 13  1  0  0  0  0
 13 14  1  0  0  0  0
 14 15  1  0  0  0  0
 14 18  1  0  0  0  0
 14 20  1  0  0  0  0
 15 16  1  0  0  0  0
 16 17  1  0  0  0  0
 17 18  1  0  0  0  0
 18 19  1  0  0  0  0
  1 21  1  0  0  0  0
  2 22  1  0  0  0  0
  4 23  1  0  0  0  0
  5 24  1  0  0  0  0
  7 25  1  0  0  0  0
  7 26  1  0  0  0  0
  8 27  1  0  0  0  0
  8 28  1  0  0  0  0
  9 29  1  0  0  0  0
 10 30  1  0  0  0  0
 12 31  1  0  0  0  0
 12 32  1  0  0  0  0
 13 33  1  0  0  0  0
 13 34  1  0  0  0  0
 15 35  1  0  0  0  0
 16 36  1  0  0  0  0
 16 37  1  0  0  0  0
 17 38  1  0  0  0  0
 17 39  1  0  0  0  0
 18 40  1  0  0  0  0
 19 41  1  0  0  0  0
 20 42  1  0  0  0  0
 20 43  1  0  0  0  0
 20 44  1  0  0  0  0
M  END
$$$$
1qkt_31
  -OEChem-01202217033D

 44 47  0     1  0  0  0  0  0999 V2000
    0.3088   53.1895  165.9361 C   0  0  0  0  0  0  0  0  0  0  0  0
    1.6623   53.4789  165.7244 C   0  0  0  0  0  0  0  0  0  0  0  0
    2.5585   52.4484  165.3553 C   0  0  0  0  0  0  0  0  0  0  0  0
    3.8876   52.7606  165.1512 O   0  0  0  0  0  0  0  0  0  0  0  0
    2.1006   51.1140  165.1980 C   0  0  0  0  0  0  0  0  0  0  0  0
    0.7109   50.7976  165.4176 C   0  0  0  0  0  0  0  0  0  0  0  0
    0.2224   49.3460  165.2613 C   0  0  0  0  0  0  0  0  0  0  0  0
   -1.2863   49.1131  165.5600 C   0  0  0  0  0  0  0  0  0  0  0  0
   -2.1736   50.3097  165.2064 C   0  0  2  0  0  0  0  0  0  0  0  0
   -1.6926   51.5616  166.0240 C   0  0  1  0  0  0  0  0  0  0  0  0
   -0.2032   51.8640  165.7888 C   0  0  0  0  0  0  0  0  0  0  0  0
   -2.6046   52.7526  165.6652 C   0  0  0  0  0  0  0  0  0  0  0  0
   -4.1050   52.5104  165.8821 C   0  0  0  0  0  0  0  0  0  0  0  0
   -4.6074   51.2664  165.1367 C   0  0  1  0  0  0  0  0  0  0  0  0
   -3.7013   50.0553  165.5406 C   0  0  1  0  0  0  0  0  0  0  0  0
   -4.4831   48.8994  164.9215 C   0  0  0  0  0  0  0  0  0  0  0  0
   -5.9653   49.1996  165.3444 C   0  0  0  0  0  0  0  0  0  0  0  0
   -6.0004   50.7379  165.5874 C   0  0  2  0  0  0  0  0  0  0  0  0
   -7.1555   51.3193  164.8918 O   0  0  0  0  0  0  0  0  0  0  0  0
   -4.6462   51.5326  163.5865 C   0  0  0  0  0  0  0  0  0  0  0  0
   -0.3660   53.9896  166.2182 H   0  0  0  0  0  0  0  0  0  0  0  0
    2.0240   54.4938  165.8434 H   0  0  0  0  0  0  0  0  0  0  0  0
    4.0392   53.6672  165.3911 H   0  0  0  0  0  0  0  0  0  0  0  0
    2.7957   50.3327  164.9127 H   0  0  0  0  0  0  0  0  0  0  0  0
    0.8055   48.7160  165.9491 H   0  0  0  0  0  0  0  0  0  0  0  0
    0.4152   49.0330  164.2246 H   0  0  0  0  0  0  0  0  0  0  0  0
   -1.3996   48.9016  166.6335 H   0  0  0  0  0  0  0  0  0  0  0  0
   -1.6260   48.2443  164.9771 H   0  0  0  0  0  0  0  0  0  0  0  0
   -2.0758   50.5140  164.1300 H   0  0  0  0  0  0  0  0  0  0  0  0
   -1.8193   51.3438  167.0947 H   0  0  0  0  0  0  0  0  0  0  0  0
   -2.4482   52.9942  164.6036 H   0  0  0  0  0  0  0  0  0  0  0  0
   -2.3046   53.6106  166.2847 H   0  0  0  0  0  0  0  0  0  0  0  0
   -4.6610   53.3879  165.5207 H   0  0  0  0  0  0  0  0  0  0  0  0
   -4.2899   52.3768  166.9582 H   0  0  0  0  0  0  0  0  0  0  0  0
   -3.7370   49.9241  166.6322 H   0  0  0  0  0  0  0  0  0  0  0  0
   -4.1458   47.9338  165.3262 H   0  0  0  0  0  0  0  0  0  0  0  0
   -4.3789   48.8946  163.8265 H   0  0  0  0  0  0  0  0  0  0  0  0
   -6.2246   48.6551  166.2642 H   0  0  0  0  0  0  0  0  0  0  0  0
   -6.6628   48.9173  164.5420 H   0  0  0  0  0  0  0  0  0  0  0  0
   -6.1194   50.9411  166.6619 H   0  0  0  0  0  0  0  0  0  0  0  0
   -7.0384   52.2590  164.8167 H   0  0  0  0  0  0  0  0  0  0  0  0
   -3.6666   51.9070  163.2542 H   0  0  0  0  0  0  0  0  0  0  0  0
   -5.4201   52.2814  163.3623 H   0  0  0  0  0  0  0  0  0  0  0  0
   -4.8786   50.5957  163.0592 H   0  0  0  0  0  0  0  0  0  0  0  0
  1  2  2  0  0  0  0
  1 11  1  0  0  0  0
  2  3  1  0  0  0  0
  3  4  1  0  0  0  0
  3  5  2  0  0  0  0
  5  6  1  0  0  0  0
  6  7  1  0  0  0  0
  6 11  2  0  0  0  0
  7  8  1  0  0  0  0
  8  9  1  0  0  0  0
  9 10  1  0  0  0  0
  9 15  1  0  0  0  0
 10 11  1  0  0  0  0
 10 12  1  0  0  0  0
 12 13  1  0  0  0  0
 13 14  1  0  0  0  0
 14 15  1  0  0  0  0
 14 18  1  0  0  0  0
 14 20  1  0  0  0  0
 15 16  1  0  0  0  0
 16 17  1  0  0  0  0
 17 18  1  0  0  0  0
 18 19  1  0  0  0  0
  1 21  1  0  0  0  0
  2 22  1  0  0  0  0
  4 23  1  0  0  0  0
  5 24  1  0  0  0  0
  7 25  1  0  0  0  0
  7 26  1  0  0  0  0
  8 27  1  0  0  0  0
  8 28  1  0  0  0  0
  9 29  1  0  0  0  0
 10 30  1  0  0  0  0
 12 31  1  0  0  0  0
 12 32  1  0  0  0  0
 13 33  1  0  0  0  0
 13 34  1  0  0  0  0
 15 35  1  0  0  0  0
 16 36  1  0  0  0  0
 16 37  1  0  0  0  0
 17 38  1  0  0  0  0
 17 39  1  0  0  0  0
 18 40  1  0  0  0  0
 19 41  1  0  0  0  0
 20 42  1  0  0  0  0
 20 43  1  0  0  0  0
 20 44  1  0  0  0  0
M  END
$$$$
1qkt_404
  -OEChem-01202217033D

 44 47  0     1  0  0  0  0  0999 V2000
    0.0270   52.6050  164.9820 C   0  0  0  0  0  0  0  0  0  0  0  0
    1.4270   52.5750  164.9890 C   0  0  0  0  0  0  0  0  0  0  0  0
    2.1090   51.4210  165.4420 C   0  0  0  0  0  0  0  0  0  0  0  0
    3.4890   51.4170  165.4370 O   0  0  0  0  0  0  0  0  0  0  0  0
    1.3870   50.2860  165.8940 C   0  0  0  0  0  0  0  0  0  0  0  0
   -0.0550   50.3020  165.8980 C   0  0  0  0  0  0  0  0  0  0  0  0
   -0.8320   49.0740  166.4050 C   0  0  0  0  0  0  0  0  0  0  0  0
   -2.3810   49.2160  166.4020 C   0  0  0  0  0  0  0  0  0  0  0  0
   -2.9130   50.1040  165.2740 C   0  0  2  0  0  0  0  0  0  0  0  0
   -2.2830   51.5360  165.4100 C   0  0  1  0  0  0  0  0  0  0  0  0
   -0.7460   51.4880  165.4250 C   0  0  0  0  0  0  0  0  0  0  0  0
   -2.8400   52.4190  164.2750 C   0  0  0  0  0  0  0  0  0  0  0  0
   -4.3710   52.5070  164.2120 C   0  0  0  0  0  0  0  0  0  0  0  0
   -5.0310   51.1240  164.1250 C   0  0  1  0  0  0  0  0  0  0  0  0
   -4.4910   50.2500  165.3060 C   0  0  1  0  0  0  0  0  0  0  0  0
   -5.4170   49.0410  165.2090 C   0  0  0  0  0  0  0  0  0  0  0  0
   -6.8380   49.6880  165.0360 C   0  0  0  0  0  0  0  0  0  0  0  0
   -6.5570   51.0940  164.4280 C   0  0  2  0  0  0  0  0  0  0  0  0
   -7.4380   51.3150  163.2740 O   0  0  0  0  0  0  0  0  0  0  0  0
   -4.7850   50.4860  162.7080 C   0  0  0  0  0  0  0  0  0  0  0  0
   -0.4820   53.4970  164.6320 H   0  0  0  0  0  0  0  0  0  0  0  0
    1.9890   53.4370  164.6480 H   0  0  0  0  0  0  0  0  0  0  0  0
    3.8060   52.2490  165.1070 H   0  0  0  0  0  0  0  0  0  0  0  0
    1.9200   49.4060  166.2360 H   0  0  0  0  0  0  0  0  0  0  0  0
   -0.5130   48.8720  167.4380 H   0  0  0  0  0  0  0  0  0  0  0  0
   -0.5690   48.2180  165.7660 H   0  0  0  0  0  0  0  0  0  0  0  0
   -2.6920   49.6510  167.3630 H   0  0  0  0  0  0  0  0  0  0  0  0
   -2.8210   48.2140  166.2920 H   0  0  0  0  0  0  0  0  0  0  0  0
   -2.6180   49.6630  164.3100 H   0  0  0  0  0  0  0  0  0  0  0  0
   -2.6080   51.9660  166.3690 H   0  0  0  0  0  0  0  0  0  0  0  0
   -2.4820   52.0110  163.3190 H   0  0  0  0  0  0  0  0  0  0  0  0
   -2.4450   53.4370  164.4100 H   0  0  0  0  0  0  0  0  0  0  0  0
   -4.6560   53.0910  163.3240 H   0  0  0  0  0  0  0  0  0  0  0  0
   -4.7340   53.0150  165.1170 H   0  0  0  0  0  0  0  0  0  0  0  0
   -4.7120   50.7530  166.2600 H   0  0  0  0  0  0  0  0  0  0  0  0
   -5.3700   48.4320  166.1240 H   0  0  0  0  0  0  0  0  0  0  0  0
   -5.1610   48.4160  164.3400 H   0  0  0  0  0  0  0  0  0  0  0  0
   -7.3430   49.7800  166.0090 H   0  0  0  0  0  0  0  0  0  0  0  0
   -7.4590   49.0870  164.3550 H   0  0  0  0  0  0  0  0  0  0  0  0
   -6.7800   51.8720  165.1730 H   0  0  0  0  0  0  0  0  0  0  0  0
   -7.1300   50.7990  162.5380 H   0  0  0  0  0  0  0  0  0  0  0  0
   -5.0220   49.4120  162.7430 H   0  0  0  0  0  0  0  0  0  0  0  0
   -3.7310   50.6200  162.4230 H   0  0  0  0  0  0  0  0  0  0  0  0
   -5.4300   50.9790  161.9670 H   0  0  0  0  0  0  0  0  0  0  0  0
  1  2  2  0  0  0  0
  1 11  1  0  0  0  0
  1 21  1  0  0  0  0
  2  3  1  0  0  0  0
  2 22  1  0  0  0  0
  3  4  1  0  0  0  0
  3  5  2  0  0  0  0
  4 23  1  0  0  0  0
  5  6  1  0  0  0  0
  5 24  1  0  0  0  0
  6  7  1  0  0  0  0
  6 11  2  0  0  0  0
  7  8  1  0  0  0  0
  7 25  1  0  0  0  0
  7 26  1  0  0  0  0
  8  9  1  0  0  0  0
  8 27  1  0  0  0  0
  8 28  1  0  0  0  0
  9 10  1  0  0  0  0
  9 15  1  0  0  0  0
  9 29  1  0  0  0  0
 10 11  1  0  0  0  0
 10 12  1  0  0  0  0
 10 30  1  0  0  0  0
 12 13  1  0  0  0  0
 12 31  1  0  0  0  0
 12 32  1  0  0  0  0
 13 14  1  0  0  0  0
 13 33  1  0  0  0  0
 13 34  1  0  0  0  0
 14 15  1  0  0  0  0
 14 18  1  0  0  0  0
 14 20  1  0  0  0  0
 15 16  1  0  0  0  0
 15 35  1  0  0  0  0
 16 17  1  0  0  0  0
 16 36  1  0  0  0  0
 16 37  1  0  0  0  0
 17 18  1  0  0  0  0
 17 38  1  0  0  0  0
 17 39  1  0  0  0  0
 18 19  1  0  0  0  0
 18 40  1  0  0  0  0
 19 41  1  0  0  0  0
 20 42  1  0  0  0  0
 20 43  1  0  0  0  0
 20 44  1  0  0  0  0
M  END
$$$$
1qkt_486
  -OEChem-01202217033D

 44 47  0     1  0  0  0  0  0999 V2000
   -0.7780   53.7370  165.6140 C   0  0  0  0  0  0  0  0  0  0  0  0
    0.4930   54.2770  165.3790 C   0  0  0  0  0  0  0  0  0  0  0  0
    1.6390   53.4520  165.4560 C   0  0  0  0  0  0  0  0  0  0  0  0
    2.8800   54.0090  165.2190 O   0  0  0  0  0  0  0  0  0  0  0  0
    1.5180   52.0740  165.7720 C   0  0  0  0  0  0  0  0  0  0  0  0
    0.2170   51.5030  166.0220 C   0  0  0  0  0  0  0  0  0  0  0  0
    0.0930   50.0110  166.3810 C   0  0  0  0  0  0  0  0  0  0  0  0
   -1.3520   49.5110  166.6680 C   0  0  0  0  0  0  0  0  0  0  0  0
   -2.4270   50.2430  165.8590 C   0  0  2  0  0  0  0  0  0  0  0  0
   -2.3570   51.7770  166.1880 C   0  0  1  0  0  0  0  0  0  0  0  0
   -0.9550   52.3560  165.9340 C   0  0  0  0  0  0  0  0  0  0  0  0
   -3.4530   52.4960  165.3750 C   0  0  0  0  0  0  0  0  0  0  0  0
   -4.8760   51.9630  165.5900 C   0  0  0  0  0  0  0  0  0  0  0  0
   -4.9790   50.4550  165.3240 C   0  0  1  0  0  0  0  0  0  0  0  0
   -3.8900   49.7310  166.1860 C   0  0  1  0  0  0  0  0  0  0  0  0
   -4.2990   48.2740  165.9920 C   0  0  0  0  0  0  0  0  0  0  0  0
   -5.8550   48.3050  166.2010 C   0  0  0  0  0  0  0  0  0  0  0  0
   -6.2670   49.7690  165.8660 C   0  0  2  0  0  0  0  0  0  0  0  0
   -7.4140   49.7600  164.9500 O   0  0  0  0  0  0  0  0  0  0  0  0
   -4.8590   50.1590  163.7840 C   0  0  0  0  0  0  0  0  0  0  0  0
   -1.6470   54.3820  165.5510 H   0  0  0  0  0  0  0  0  0  0  0  0
    0.5980   55.3290  165.1390 H   0  0  0  0  0  0  0  0  0  0  0  0
    2.7790   54.9330  165.0240 H   0  0  0  0  0  0  0  0  0  0  0  0
    2.4030   51.4500  165.8260 H   0  0  0  0  0  0  0  0  0  0  0  0
    0.7000   49.8260  167.2780 H   0  0  0  0  0  0  0  0  0  0  0  0
    0.4930   49.4250  165.5400 H   0  0  0  0  0  0  0  0  0  0  0  0
   -1.5640   49.6560  167.7370 H   0  0  0  0  0  0  0  0  0  0  0  0
   -1.4040   48.4400  166.4240 H   0  0  0  0  0  0  0  0  0  0  0  0
   -2.2280   50.0870  164.7880 H   0  0  0  0  0  0  0  0  0  0  0  0
   -2.5790   51.9120  167.2560 H   0  0  0  0  0  0  0  0  0  0  0  0
   -3.2080   52.3950  164.3080 H   0  0  0  0  0  0  0  0  0  0  0  0
   -3.4420   53.5600  165.6540 H   0  0  0  0  0  0  0  0  0  0  0  0
   -5.5580   52.4890  164.9070 H   0  0  0  0  0  0  0  0  0  0  0  0
   -5.1740   52.1590  166.6300 H   0  0  0  0  0  0  0  0  0  0  0  0
   -4.0470   49.9750  167.2480 H   0  0  0  0  0  0  0  0  0  0  0  0
   -3.8140   47.6250  166.7370 H   0  0  0  0  0  0  0  0  0  0  0  0
   -4.0450   47.9230  164.9800 H   0  0  0  0  0  0  0  0  0  0  0  0
   -6.1120   48.0580  167.2430 H   0  0  0  0  0  0  0  0  0  0  0  0
   -6.3530   47.5970  165.5230 H   0  0  0  0  0  0  0  0  0  0  0  0
   -6.5770   50.2880  166.7860 H   0  0  0  0  0  0  0  0  0  0  0  0
   -7.1220   49.5120  164.0800 H   0  0  0  0  0  0  0  0  0  0  0  0
   -4.6680   49.0860  163.6300 H   0  0  0  0  0  0  0  0  0  0  0  0
   -4.0300   50.7440  163.3610 H   0  0  0  0  0  0  0  0  0  0  0  0
   -5.7980   50.4380  163.2830 H   0  0  0  0  0  0  0  0  0  0  0  0
  1  2  2  0  0  0  0
  1 11  1  0  0  0  0
  1 21  1  0  0  0  0
  2  3  1  0  0  0  0
  2 22  1  0  0  0  0
  3  4  1  0  0  0  0
  3  5  2  0  0  0  0
  4 23  1  0  0  0  0
  5  6  1  0  0  0  0
  5 24  1  0  0  0  0
  6  7  1  0  0  0  0
  6 11  2  0  0  0  0
  7  8  1  0  0  0  0
  7 25  1  0  0  0  0
  7 26  1  0  0  0  0
  8  9  1  0  0  0  0
  8 27  1  0  0  0  0
  8 28  1  0  0  0  0
  9 10  1  0  0  0  0
  9 15  1  0  0  0  0
  9 29  1  0  0  0  0
 10 11  1  0  0  0  0
 10 12  1  0  0  0  0
 10 30  1  0  0  0  0
 12 13  1  0  0  0  0
 12 31  1  0  0  0  0
 12 32  1  0  0  0  0
 13 14  1  0  0  0  0
 13 33  1  0  0  0  0
 13 34  1  0  0  0  0
 14 15  1  0  0  0  0
 14 18  1  0  0  0  0
 14 20  1  0  0  0  0
 15 16  1  0  0  0  0
 15 35  1  0  0  0  0
 16 17  1  0  0  0  0
 16 36  1  0  0  0  0
 16 37  1  0  0  0  0
 17 18  1  0  0  0  0
 17 38  1  0  0  0  0
 17 39  1  0  0  0  0
 18 19  1  0  0  0  0
 18 40  1  0  0  0  0
 19 41  1  0  0  0  0
 20 42  1  0  0  0  0
 20 43  1  0  0  0  0
 20 44  1  0  0  0  0
M  END
$$$$
1qkt_500
  -OEChem-01202217033D

 44 47  0     1  0  0  0  0  0999 V2000
   -2.9200   49.5250  165.1880 C   0  0  0  0  0  0  0  0  0  0  0  0
   -4.2510   49.2000  164.8980 C   0  0  0  0  0  0  0  0  0  0  0  0
   -5.2160   50.2240  164.7570 C   0  0  0  0  0  0  0  0  0  0  0  0
   -6.5210   49.8770  164.4700 O   0  0  0  0  0  0  0  0  0  0  0  0
   -4.8510   51.5880  164.9080 C   0  0  0  0  0  0  0  0  0  0  0  0
   -3.4860   51.9390  165.2120 C   0  0  0  0  0  0  0  0  0  0  0  0
   -3.0990   53.4190  165.3900 C   0  0  0  0  0  0  0  0  0  0  0  0
   -1.6090   53.6800  165.7540 C   0  0  0  0  0  0  0  0  0  0  0  0
   -0.6420   52.6550  165.1540 C   0  0  2  0  0  0  0  0  0  0  0  0
   -1.0350   51.2220  165.6650 C   0  0  1  0  0  0  0  0  0  0  0  0
   -2.5010   50.8810  165.3470 C   0  0  0  0  0  0  0  0  0  0  0  0
   -0.0440   50.2060  165.0610 C   0  0  0  0  0  0  0  0  0  0  0  0
    1.4370   50.4940  165.3470 C   0  0  0  0  0  0  0  0  0  0  0  0
    1.8510   51.9040  164.9050 C   0  0  1  0  0  0  0  0  0  0  0  0
    0.8650   52.9300  165.5570 C   0  0  1  0  0  0  0  0  0  0  0  0
    1.5640   54.2450  165.2230 C   0  0  0  0  0  0  0  0  0  0  0  0
    3.0640   53.9580  165.5880 C   0  0  0  0  0  0  0  0  0  0  0  0
    3.2050   52.4110  165.4820 C   0  0  2  0  0  0  0  0  0  0  0  0
    4.3960   52.0790  164.6900 O   0  0  0  0  0  0  0  0  0  0  0  0
    1.9050   51.9950  163.3360 C   0  0  0  0  0  0  0  0  0  0  0  0
   -2.1910   48.7290  165.2930 H   0  0  0  0  0  0  0  0  0  0  0  0
   -4.5420   48.1620  164.7820 H   0  0  0  0  0  0  0  0  0  0  0  0
   -6.5890   48.9320  164.4040 H   0  0  0  0  0  0  0  0  0  0  0  0
   -5.5990   52.3650  164.7950 H   0  0  0  0  0  0  0  0  0  0  0  0
   -3.7220   53.8380  166.1930 H   0  0  0  0  0  0  0  0  0  0  0  0
   -3.3140   53.9420  164.4480 H   0  0  0  0  0  0  0  0  0  0  0  0
   -1.5090   53.6520  166.8490 H   0  0  0  0  0  0  0  0  0  0  0  0
   -1.3310   54.6770  165.3840 H   0  0  0  0  0  0  0  0  0  0  0  0
   -0.7280   52.6910  164.0580 H   0  0  0  0  0  0  0  0  0  0  0  0
   -0.9220   51.2030  166.7580 H   0  0  0  0  0  0  0  0  0  0  0  0
   -0.1850   50.1980  163.9700 H   0  0  0  0  0  0  0  0  0  0  0  0
   -0.2830   49.2130  165.4690 H   0  0  0  0  0  0  0  0  0  0  0  0
    2.0510   49.7600  164.8060 H   0  0  0  0  0  0  0  0  0  0  0  0
    1.6140   50.3960  166.4280 H   0  0  0  0  0  0  0  0  0  0  0  0
    0.8940   52.8160  166.6520 H   0  0  0  0  0  0  0  0  0  0  0  0
    1.1620   55.0710  165.8290 H   0  0  0  0  0  0  0  0  0  0  0  0
    1.4590   54.4890  164.1550 H   0  0  0  0  0  0  0  0  0  0  0  0
    3.2880   54.3000  166.6100 H   0  0  0  0  0  0  0  0  0  0  0  0
    3.7400   54.4590  164.8790 H   0  0  0  0  0  0  0  0  0  0  0  0
    3.3400   51.9810  166.4860 H   0  0  0  0  0  0  0  0  0  0  0  0
    4.2230   52.2500  163.7720 H   0  0  0  0  0  0  0  0  0  0  0  0
    1.9390   53.0510  163.0310 H   0  0  0  0  0  0  0  0  0  0  0  0
    1.0100   51.5180  162.9100 H   0  0  0  0  0  0  0  0  0  0  0  0
    2.8050   51.4800  162.9700 H   0  0  0  0  0  0  0  0  0  0  0  0
  1  2  2  0  0  0  0
  1 11  1  0  0  0  0
  1 21  1  0  0  0  0
  2  3  1  0  0  0  0
  2 22  1  0  0  0  0
  3  4  1  0  0  0  0
  3  5  2  0  0  0  0
  4 23  1  0  0  0  0
  5  6  1  0  0  0  0
  5 24  1  0  0  0  0
  6  7  1  0  0  0  0
  6 11  2  0  0  0  0
  7  8  1  0  0  0  0
  7 25  1  0  0  0  0
  7 26  1  0  0  0  0
  8  9  1  0  0  0  0
  8 27  1  0  0  0  0
  8 28  1  0  0  0  0
  9 10  1  0  0  0  0
  9 15  1  0  0  0  0
  9 29  1  0  0  0  0
 10 11  1  0  0  0  0
 10 12  1  0  0  0  0
 10 30  1  0  0  0  0
 12 13  1  0  0  0  0
 12 31  1  0  0  0  0
 12 32  1  0  0  0  0
 13 14  1  0  0  0  0
 13 33  1  0  0  0  0
 13 34  1  0  0  0  0
 14 15  1  0  0  0  0
 14 18  1  0  0  0  0
 14 20  1  0  0  0  0
 15 16  1  0  0  0  0
 15 35  1  0  0  0  0
 16 17  1  0  0  0  0
 16 36  1  0  0  0  0
 16 37  1  0  0  0  0
 17 18  1  0  0  0  0
 17 38  1  0  0  0  0
 17 39  1  0  0  0  0
 18 19  1  0  0  0  0
 18 40  1  0  0  0  0
 19 41  1  0  0  0  0
 20 42  1  0  0  0  0
 20 43  1  0  0  0  0
 20 44  1  0  0  0  0
M  END
$$$$
1qkt_549
  -OEChem-01202217033D

 44 47  0     1  0  0  0  0  0999 V2000
   -4.1430   51.5680  163.4800 C   0  0  0  0  0  0  0  0  0  0  0  0
   -5.5390   51.4860  163.5560 C   0  0  0  0  0  0  0  0  0  0  0  0
   -6.1490   50.4230  164.2620 C   0  0  0  0  0  0  0  0  0  0  0  0
   -7.5270   50.3670  164.3240 O   0  0  0  0  0  0  0  0  0  0  0  0
   -5.3590   49.4290  164.8970 C   0  0  0  0  0  0  0  0  0  0  0  0
   -3.9210   49.4950  164.8230 C   0  0  0  0  0  0  0  0  0  0  0  0
   -3.0690   48.4060  165.5000 C   0  0  0  0  0  0  0  0  0  0  0  0
   -1.5310   48.5550  165.3240 C   0  0  0  0  0  0  0  0  0  0  0  0
   -1.0620   50.0100  165.2310 C   0  0  2  0  0  0  0  0  0  0  0  0
   -1.7710   50.6980  164.0110 C   0  0  1  0  0  0  0  0  0  0  0  0
   -3.3030   50.5950  164.1030 C   0  0  0  0  0  0  0  0  0  0  0  0
   -1.2780   52.1570  163.9250 C   0  0  0  0  0  0  0  0  0  0  0  0
    0.2450   52.3240  163.8280 C   0  0  0  0  0  0  0  0  0  0  0  0
    0.9810   51.6250  164.9790 C   0  0  1  0  0  0  0  0  0  0  0  0
    0.5050   50.1340  165.0300 C   0  0  1  0  0  0  0  0  0  0  0  0
    1.4980   49.5550  166.0340 C   0  0  0  0  0  0  0  0  0  0  0  0
    2.8770   50.1280  165.5490 C   0  0  0  0  0  0  0  0  0  0  0  0
    2.5100   51.4240  164.7670 C   0  0  2  0  0  0  0  0  0  0  0  0
    3.3640   52.5300  165.2190 O   0  0  0  0  0  0  0  0  0  0  0  0
    0.7570   52.4020  166.3290 C   0  0  0  0  0  0  0  0  0  0  0  0
   -3.6900   52.3890  162.9350 H   0  0  0  0  0  0  0  0  0  0  0  0
   -6.1520   52.2380  163.0740 H   0  0  0  0  0  0  0  0  0  0  0  0
   -7.8940   51.1030  163.8490 H   0  0  0  0  0  0  0  0  0  0  0  0
   -5.8380   48.6200  165.4380 H   0  0  0  0  0  0  0  0  0  0  0  0
   -3.3650   47.4340  165.0800 H   0  0  0  0  0  0  0  0  0  0  0  0
   -3.2900   48.4230  166.5770 H   0  0  0  0  0  0  0  0  0  0  0  0
   -1.2340   48.0360  164.4010 H   0  0  0  0  0  0  0  0  0  0  0  0
   -1.0350   48.0850  166.1850 H   0  0  0  0  0  0  0  0  0  0  0  0
   -1.3420   50.5290  166.1600 H   0  0  0  0  0  0  0  0  0  0  0  0
   -1.4610   50.1780  163.0930 H   0  0  0  0  0  0  0  0  0  0  0  0
   -1.6230   52.6870  164.8250 H   0  0  0  0  0  0  0  0  0  0  0  0
   -1.7290   52.6180  163.0340 H   0  0  0  0  0  0  0  0  0  0  0  0
    0.4860   53.3970  163.8550 H   0  0  0  0  0  0  0  0  0  0  0  0
    0.5880   51.8940  162.8760 H   0  0  0  0  0  0  0  0  0  0  0  0
    0.7070   49.6560  164.0600 H   0  0  0  0  0  0  0  0  0  0  0  0
    1.4950   48.4550  166.0020 H   0  0  0  0  0  0  0  0  0  0  0  0
    1.2680   49.8920  167.0560 H   0  0  0  0  0  0  0  0  0  0  0  0
    3.3870   49.4080  164.8920 H   0  0  0  0  0  0  0  0  0  0  0  0
    3.5230   50.3630  166.4080 H   0  0  0  0  0  0  0  0  0  0  0  0
    2.6960   51.2740  163.6930 H   0  0  0  0  0  0  0  0  0  0  0  0
    3.0780   52.8190  166.0770 H   0  0  0  0  0  0  0  0  0  0  0  0
    1.0550   51.7640  167.1730 H   0  0  0  0  0  0  0  0  0  0  0  0
   -0.3060   52.6670  166.4260 H   0  0  0  0  0  0  0  0  0  0  0  0
    1.3650   53.3180  166.3290 H   0  0  0  0  0  0  0  0  0  0  0  0
  1  2  2  0  0  0  0
  1 11  1  0  0  0  0
  1 21  1  0  0  0  0
  2  3  1  0  0  0  0
  2 22  1  0  0  0  0
  3  4  1  0  0  0  0
  3  5  2  0  0  0  0
  4 23  1  0  0  0  0
  5  6  1  0  0  0  0
  5 24  1  0  0  0  0
  6  7  1  0  0  0  0
  6 11  2  0  0  0  0
  7  8  1  0  0  0  0
  7 25  1  0  0  0  0
  7 26  1  0  0  0  0
  8  9  1  0  0  0  0
  8 27  1  0  0  0  0
  8 28  1  0  0  0  0
  9 10  1  0  0  0  0
  9 15  1  0  0  0  0
  9 29  1  0  0  0  0
 10 11  1  0  0  0  0
 10 12  1  0  0  0  0
 10 30  1  0  0  0  0
 12 13  1  0  0  0  0
 12 31  1  0  0  0  0
 12 32  1  0  0  0  0
 13 14  1  0  0  0  0
 13 33  1  0  0  0  0
 13 34  1  0  0  0  0
 14 15  1  0  0  0  0
 14 18  1  0  0  0  0
 14 20  1  0  0  0  0
 15 16  1  0  0  0  0
 15 35  1  0  0  0  0
 16 17  1  0  0  0  0
 16 36  1  0  0  0  0
 16 37  1  0  0  0  0
 17 18  1  0  0  0  0
 17 38  1  0  0  0  0
 17 39  1  0  0  0  0
 18 19  1  0  0  0  0
 18 40  1  0  0  0  0
 19 41  1  0  0  0  0
 20 42  1  0  0  0  0
 20 43  1  0  0  0  0
 20 44  1  0  0  0  0
M  END
$$$$
1qkt_55
  -OEChem-01202217033D

 44 47  0     1  0  0  0  0  0999 V2000
    0.7175   52.7836  165.4081 C   0  0  0  0  0  0  0  0  0  0  0  0
    2.0700   52.9758  165.1010 C   0  0  0  0  0  0  0  0  0  0  0  0
    2.9418   51.8652  165.0125 C   0  0  0  0  0  0  0  0  0  0  0  0
    4.2705   52.0819  164.7069 O   0  0  0  0  0  0  0  0  0  0  0  0
    2.4603   50.5486  165.2352 C   0  0  0  0  0  0  0  0  0  0  0  0
    1.0714   50.3333  165.5579 C   0  0  0  0  0  0  0  0  0  0  0  0
    0.5576   48.9049  165.8142 C   0  0  0  0  0  0  0  0  0  0  0  0
   -0.9472   48.7940  166.1921 C   0  0  0  0  0  0  0  0  0  0  0  0
   -1.8242   49.8663  165.5401 C   0  0  2  0  0  0  0  0  0  0  0  0
   -1.3058   51.2839  165.9746 C   0  0  1  0  0  0  0  0  0  0  0  0
    0.1823   51.4794  165.6389 C   0  0  0  0  0  0  0  0  0  0  0  0
   -2.2076   52.3499  165.3195 C   0  0  0  0  0  0  0  0  0  0  0  0
   -3.7061   52.2077  165.6213 C   0  0  0  0  0  0  0  0  0  0  0  0
   -4.2442   50.8179  165.2545 C   0  0  1  0  0  0  0  0  0  0  0  0
   -3.3476   49.7450  165.9586 C   0  0  1  0  0  0  0  0  0  0  0  0
   -4.1607   48.4803  165.6940 C   0  0  0  0  0  0  0  0  0  0  0  0
   -5.6281   48.9156  166.0448 C   0  0  0  0  0  0  0  0  0  0  0  0
   -5.6344   50.4620  165.8576 C   0  0  2  0  0  0  0  0  0  0  0  0
   -6.7962   50.8548  165.0501 O   0  0  0  0  0  0  0  0  0  0  0  0
   -4.3145   50.6505  163.6916 C   0  0  0  0  0  0  0  0  0  0  0  0
    0.0615   53.6443  165.4722 H   0  0  0  0  0  0  0  0  0  0  0  0
    2.4497   53.9768  164.9309 H   0  0  0  0  0  0  0  0  0  0  0  0
    4.3693   52.9455  164.3237 H   0  0  0  0  0  0  0  0  0  0  0  0
    3.1369   49.7047  165.1625 H   0  0  0  0  0  0  0  0  0  0  0  0
    1.1466   48.4751  166.6377 H   0  0  0  0  0  0  0  0  0  0  0  0
    0.7218   48.3161  164.8997 H   0  0  0  0  0  0  0  0  0  0  0  0
   -1.0391   48.8868  167.2844 H   0  0  0  0  0  0  0  0  0  0  0  0
   -1.3133   47.8061  165.8759 H   0  0  0  0  0  0  0  0  0  0  0  0
   -1.7481   49.7662  164.4474 H   0  0  0  0  0  0  0  0  0  0  0  0
   -1.4112   51.3702  167.0661 H   0  0  0  0  0  0  0  0  0  0  0  0
   -2.0719   52.2885  164.2297 H   0  0  0  0  0  0  0  0  0  0  0  0
   -1.8806   53.3383  165.6747 H   0  0  0  0  0  0  0  0  0  0  0  0
   -4.2570   52.9642  165.0433 H   0  0  0  0  0  0  0  0  0  0  0  0
   -3.8684   52.3775  166.6960 H   0  0  0  0  0  0  0  0  0  0  0  0
   -3.3602   49.9183  167.0447 H   0  0  0  0  0  0  0  0  0  0  0  0
   -3.8288   47.6555  166.3417 H   0  0  0  0  0  0  0  0  0  0  0  0
   -4.0817   48.1739  164.6405 H   0  0  0  0  0  0  0  0  0  0  0  0
   -5.8745   48.6491  167.0832 H   0  0  0  0  0  0  0  0  0  0  0  0
   -6.3480   48.4390  165.3632 H   0  0  0  0  0  0  0  0  0  0  0  0
   -5.7256   50.9540  166.8372 H   0  0  0  0  0  0  0  0  0  0  0  0
   -6.8013   50.3567  164.2412 H   0  0  0  0  0  0  0  0  0  0  0  0
   -3.3373   50.8991  163.2520 H   0  0  0  0  0  0  0  0  0  0  0  0
   -5.0820   51.3252  163.2847 H   0  0  0  0  0  0  0  0  0  0  0  0
   -4.5731   49.6100  163.4455 H   0  0  0  0  0  0  0  0  0  0  0  0
  1  2  2  0  0  0  0
  1 11  1  0  0  0  0
  2  3  1  0  0  0  0
  3  4  1  0  0  0  0
  3  5  2  0  0  0  0
  5  6  1  0  0  0  0
  6  7  1  0  0  0  0
  6 11  2  0  0  0  0
  7  8  1  0  0  0  0
  8  9  1  0  0  0  0
  9 10  1  0  0  0  0
  9 15  1  0  0  0  0
 10 11  1  0  0  0  0
 10 12  1  0  0  0  0
 12 13  1  0  0  0  0
 13 14  1  0  0  0  0
 14 15  1  0  0  0  0
 14 18  1  0  0  0  0
 14 20  1  0  0  0  0
 15 16  1  0  0  0  0
 16 17  1  0  0  0  0
 17 18  1  0  0  0  0
 18 19  1  0  0  0  0
  1 21  1  0  0  0  0
  2 22  1  0  0  0  0
  4 23  1  0  0  0  0
  5 24  1  0  0  0  0
  7 25  1  0  0  0  0
  7 26  1  0  0  0  0
  8 27  1  0  0  0  0
  8 28  1  0  0  0  0
  9 29  1  0  0  0  0
 10 30  1  0  0  0  0
 12 31  1  0  0  0  0
 12 32  1  0  0  0  0
 13 33  1  0  0  0  0
 13 34  1  0  0  0  0
 15 35  1  0  0  0  0
 16 36  1  0  0  0  0
 16 37  1  0  0  0  0
 17 38  1  0  0  0  0
 17 39  1  0  0  0  0
 18 40  1  0  0  0  0
 19 41  1  0  0  0  0
 20 42  1  0  0  0  0
 20 43  1  0  0  0  0
 20 44  1  0  0  0  0
M  END
$$$$
1qkt_557
  -OEChem-01202217033D

 44 47  0     1  0  0  0  0  0999 V2000
   -0.1540   49.4590  165.5800 C   0  0  0  0  0  0  0  0  0  0  0  0
    1.1810   49.8590  165.7170 C   0  0  0  0  0  0  0  0  0  0  0  0
    1.6320   51.0480  165.0980 C   0  0  0  0  0  0  0  0  0  0  0  0
    2.9530   51.4200  165.2490 O   0  0  0  0  0  0  0  0  0  0  0  0
    0.7430   51.8470  164.3330 C   0  0  0  0  0  0  0  0  0  0  0  0
   -0.6340   51.4480  164.1780 C   0  0  0  0  0  0  0  0  0  0  0  0
   -1.5910   52.3090  163.3340 C   0  0  0  0  0  0  0  0  0  0  0  0
   -3.0420   51.7630  163.2020 C   0  0  0  0  0  0  0  0  0  0  0  0
   -3.5200   50.9900  164.4340 C   0  0  2  0  0  0  0  0  0  0  0  0
   -2.5530   49.7770  164.6830 C   0  0  1  0  0  0  0  0  0  0  0  0
   -1.0900   50.2280  164.8230 C   0  0  0  0  0  0  0  0  0  0  0  0
   -3.0570   49.0030  165.9180 C   0  0  0  0  0  0  0  0  0  0  0  0
   -4.5130   48.5240  165.8350 C   0  0  0  0  0  0  0  0  0  0  0  0
   -5.4890   49.6730  165.5460 C   0  0  1  0  0  0  0  0  0  0  0  0
   -4.9910   50.4260  164.2660 C   0  0  1  0  0  0  0  0  0  0  0  0
   -6.1830   51.3410  163.9960 C   0  0  0  0  0  0  0  0  0  0  0  0
   -7.4160   50.3830  164.1530 C   0  0  0  0  0  0  0  0  0  0  0  0
   -6.9100   49.2400  165.0820 C   0  0  2  0  0  0  0  0  0  0  0  0
   -7.8850   49.0090  166.1550 O   0  0  0  0  0  0  0  0  0  0  0  0
   -5.6310   50.6040  166.8060 C   0  0  0  0  0  0  0  0  0  0  0  0
   -0.4850   48.5450  166.0610 H   0  0  0  0  0  0  0  0  0  0  0  0
    1.8700   49.2560  166.2970 H   0  0  0  0  0  0  0  0  0  0  0  0
    3.4020   50.7780  165.7850 H   0  0  0  0  0  0  0  0  0  0  0  0
    1.0980   52.7580  163.8650 H   0  0  0  0  0  0  0  0  0  0  0  0
   -1.1680   52.3940  162.3220 H   0  0  0  0  0  0  0  0  0  0  0  0
   -1.6440   53.3060  163.7940 H   0  0  0  0  0  0  0  0  0  0  0  0
   -3.0820   51.0910  162.3330 H   0  0  0  0  0  0  0  0  0  0  0  0
   -3.7190   52.6140  163.0420 H   0  0  0  0  0  0  0  0  0  0  0  0
   -3.4960   51.6640  165.3030 H   0  0  0  0  0  0  0  0  0  0  0  0
   -2.6090   49.1070  163.8130 H   0  0  0  0  0  0  0  0  0  0  0  0
   -2.9640   49.6610  166.7950 H   0  0  0  0  0  0  0  0  0  0  0  0
   -2.4150   48.1210  166.0530 H   0  0  0  0  0  0  0  0  0  0  0  0
   -4.7890   48.0600  166.7940 H   0  0  0  0  0  0  0  0  0  0  0  0
   -4.5960   47.7800  165.0300 H   0  0  0  0  0  0  0  0  0  0  0  0
   -4.9310   49.7150  163.4280 H   0  0  0  0  0  0  0  0  0  0  0  0
   -6.1360   51.7600  162.9800 H   0  0  0  0  0  0  0  0  0  0  0  0
   -6.2250   52.1610  164.7290 H   0  0  0  0  0  0  0  0  0  0  0  0
   -7.7240   49.9820  163.1760 H   0  0  0  0  0  0  0  0  0  0  0  0
   -8.2630   50.9120  164.6160 H   0  0  0  0  0  0  0  0  0  0  0  0
   -6.8180   48.3070  164.5060 H   0  0  0  0  0  0  0  0  0  0  0  0
   -7.8300   49.7150  166.7890 H   0  0  0  0  0  0  0  0  0  0  0  0
   -6.1090   51.5500  166.5110 H   0  0  0  0  0  0  0  0  0  0  0  0
   -4.6350   50.8100  167.2240 H   0  0  0  0  0  0  0  0  0  0  0  0
   -6.2510   50.1030  167.5640 H   0  0  0  0  0  0  0  0  0  0  0  0
  1  2  2  0  0  0  0
  1 11  1  0  0  0  0
  1 21  1  0  0  0  0
  2  3  1  0  0  0  0
  2 22  1  0  0  0  0
  3  4  1  0  0  0  0
  3  5  2  0  0  0  0
  4 23  1  0  0  0  0
  5  6  1  0  0  0  0
  5 24  1  0  0  0  0
  6  7  1  0  0  0  0
  6 11  2  0  0  0  0
  7  8  1  0  0  0  0
  7 25  1  0  0  0  0
  7 26  1  0  0  0  0
  8  9  1  0  0  0  0
  8 27  1  0  0  0  0
  8 28  1  0  0  0  0
  9 10  1  0  0  0  0
  9 15  1  0  0  0  0
  9 29  1  0  0  0  0
 10 11  1  0  0  0  0
 10 12  1  0  0  0  0
 10 30  1  0  0  0  0
 12 13  1  0  0  0  0
 12 31  1  0  0  0  0
 12 32  1  0  0  0  0
 13 14  1  0  0  0  0
 13 33  1  0  0  0  0
 13 34  1  0  0  0  0
 14 15  1  0  0  0  0
 14 18  1  0  0  0  0
 14 20  1  0  0  0  0
 15 16  1  0  0  0  0
 15 35  1  0  0  0  0
 16 17  1  0  0  0  0
 16 36  1  0  0  0  0
 16 37  1  0  0  0  0
 17 18  1  0  0  0  0
 17 38  1  0  0  0  0
 17 39  1  0  0  0  0
 18 19  1  0  0  0  0
 18 40  1  0  0  0  0
 19 41  1  0  0  0  0
 20 42  1  0  0  0  0
 20 43  1  0  0  0  0
 20 44  1  0  0  0  0
M  END
$$$$
1qkt_594
  -OEChem-01202217033D

 44 47  0     1  0  0  0  0  0999 V2000
   -0.3410   51.3710  165.4970 C   0  0  0  0  0  0  0  0  0  0  0  0
    0.8770   52.0430  165.6620 C   0  0  0  0  0  0  0  0  0  0  0  0
    1.0000   53.3950  165.2660 C   0  0  0  0  0  0  0  0  0  0  0  0
    2.2100   54.0350  165.4400 O   0  0  0  0  0  0  0  0  0  0  0  0
   -0.1030   54.0850  164.6970 C   0  0  0  0  0  0  0  0  0  0  0  0
   -1.3620   53.4060  164.5150 C   0  0  0  0  0  0  0  0  0  0  0  0
   -2.5510   54.1540  163.8830 C   0  0  0  0  0  0  0  0  0  0  0  0
   -3.8470   53.3140  163.6990 C   0  0  0  0  0  0  0  0  0  0  0  0
   -4.0430   52.2440  164.7770 C   0  0  2  0  0  0  0  0  0  0  0  0
   -2.8120   51.2690  164.7580 C   0  0  1  0  0  0  0  0  0  0  0  0
   -1.4810   52.0200  164.9320 C   0  0  0  0  0  0  0  0  0  0  0  0
   -3.0320   50.1920  165.8400 C   0  0  0  0  0  0  0  0  0  0  0  0
   -4.3450   49.4060  165.7170 C   0  0  0  0  0  0  0  0  0  0  0  0
   -5.5730   50.3260  165.6840 C   0  0  1  0  0  0  0  0  0  0  0  0
   -5.3580   51.3890  164.5540 C   0  0  1  0  0  0  0  0  0  0  0  0
   -6.7420   52.0310  164.5040 C   0  0  0  0  0  0  0  0  0  0  0  0
   -7.7120   50.7970  164.5170 C   0  0  0  0  0  0  0  0  0  0  0  0
   -6.8920   49.6590  165.1940 C   0  0  2  0  0  0  0  0  0  0  0  0
   -7.7050   49.0200  166.2370 O   0  0  0  0  0  0  0  0  0  0  0  0
   -5.8240   50.9590  167.1020 C   0  0  0  0  0  0  0  0  0  0  0  0
   -0.4190   50.3340  165.8070 H   0  0  0  0  0  0  0  0  0  0  0  0
    1.7260   51.5260  166.0930 H   0  0  0  0  0  0  0  0  0  0  0  0
    2.8320   53.4320  165.8290 H   0  0  0  0  0  0  0  0  0  0  0  0
    0.0010   55.1220  164.3990 H   0  0  0  0  0  0  0  0  0  0  0  0
   -2.2360   54.5130  162.8920 H   0  0  0  0  0  0  0  0  0  0  0  0
   -2.7910   55.0130  164.5250 H   0  0  0  0  0  0  0  0  0  0  0  0
   -3.8020   52.8160  162.7200 H   0  0  0  0  0  0  0  0  0  0  0  0
   -4.7090   53.9960  163.7260 H   0  0  0  0  0  0  0  0  0  0  0  0
   -4.1040   52.7400  165.7570 H   0  0  0  0  0  0  0  0  0  0  0  0
   -2.7820   50.7690  163.7790 H   0  0  0  0  0  0  0  0  0  0  0  0
   -3.0220   50.6880  166.8220 H   0  0  0  0  0  0  0  0  0  0  0  0
   -2.1990   49.4760  165.7830 H   0  0  0  0  0  0  0  0  0  0  0  0
   -4.4340   48.7280  166.5780 H   0  0  0  0  0  0  0  0  0  0  0  0
   -4.3190   48.8180  164.7880 H   0  0  0  0  0  0  0  0  0  0  0  0
   -5.2040   50.8720  163.5950 H   0  0  0  0  0  0  0  0  0  0  0  0
   -6.8690   52.6220  163.5850 H   0  0  0  0  0  0  0  0  0  0  0  0
   -6.9110   52.6750  165.3800 H   0  0  0  0  0  0  0  0  0  0  0  0
   -7.9960   50.5140  163.4920 H   0  0  0  0  0  0  0  0  0  0  0  0
   -8.6180   51.0210  165.1000 H   0  0  0  0  0  0  0  0  0  0  0  0
   -6.6370   48.8910  164.4490 H   0  0  0  0  0  0  0  0  0  0  0  0
   -7.7620   49.5950  166.9900 H   0  0  0  0  0  0  0  0  0  0  0  0
   -6.5230   51.8030  167.0080 H   0  0  0  0  0  0  0  0  0  0  0  0
   -4.8710   51.3170  167.5180 H   0  0  0  0  0  0  0  0  0  0  0  0
   -6.2550   50.2000  167.7710 H   0  0  0  0  0  0  0  0  0  0  0  0
  1  2  2  0  0  0  0
  1 11  1  0  0  0  0
  1 21  1  0  0  0  0
  2  3  1  0  0  0  0
  2 22  1  0  0  0  0
  3  4  1  0  0  0  0
  3  5  2  0  0  0  0
  4 23  1  0  0  0  0
  5  6  1  0  0  0  0
  5 24  1  0  0  0  0
  6  7  1  0  0  0  0
  6 11  2  0  0  0  0
  7  8  1  0  0  0  0
  7 25  1  0  0  0  0
  7 26  1  0  0  0  0
  8  9  1  0  0  0  0
  8 27  1  0  0  0  0
  8 28  1  0  0  0  0
  9 10  1  0  0  0  0
  9 15  1  0  0  0  0
  9 29  1  0  0  0  0
 10 11  1  0  0  0  0
 10 12  1  0  0  0  0
 10 30  1  0  0  0  0
 12 13  1  0  0  0  0
 12 31  1  0  0  0  0
 12 32  1  0  0  0  0
 13 14  1  0  0  0  0
 13 33  1  0  0  0  0
 13 34  1  0  0  0  0
 14 15  1  0  0  0  0
 14 18  1  0  0  0  0
 14 20  1  0  0  0  0
 15 16  1  0  0  0  0
 15 35  1  0  0  0  0
 16 17  1  0  0  0  0
 16 36  1  0  0  0  0
 16 37  1  0  0  0  0
 17 18  1  0  0  0  0
 17 38  1  0  0  0  0
 17 39  1  0  0  0  0
 18 19  1  0  0  0  0
 18 40  1  0  0  0  0
 19 41  1  0  0  0  0
 20 42  1  0  0  0  0
 20 43  1  0  0  0  0
 20 44  1  0  0  0  0
M  END
$$$$
1qkt_598
  -OEChem-01202217033D

 44 47  0     1  0  0  0  0  0999 V2000
   -2.1040   52.8180  159.9210 C   0  0  0  0  0  0  0  0  0  0  0  0
   -2.7430   53.6850  159.0270 C   0  0  0  0  0  0  0  0  0  0  0  0
   -3.8220   54.4870  159.4660 C   0  0  0  0  0  0  0  0  0  0  0  0
   -4.4340   55.3350  158.5640 O   0  0  0  0  0  0  0  0  0  0  0  0
   -4.2700   54.4230  160.8110 C   0  0  0  0  0  0  0  0  0  0  0  0
   -3.6270   53.5310  161.7440 C   0  0  0  0  0  0  0  0  0  0  0  0
   -4.1270   53.4530  163.1980 C   0  0  0  0  0  0  0  0  0  0  0  0
   -3.3850   52.4300  164.1060 C   0  0  0  0  0  0  0  0  0  0  0  0
   -1.9080   52.2480  163.7450 C   0  0  2  0  0  0  0  0  0  0  0  0
   -1.8020   51.7600  162.2560 C   0  0  1  0  0  0  0  0  0  0  0  0
   -2.5150   52.7170  161.2860 C   0  0  0  0  0  0  0  0  0  0  0  0
   -0.3100   51.5700  161.9150 C   0  0  0  0  0  0  0  0  0  0  0  0
    0.4540   50.6220  162.8500 C   0  0  0  0  0  0  0  0  0  0  0  0
    0.3370   51.0370  164.3230 C   0  0  1  0  0  0  0  0  0  0  0  0
   -1.1820   51.1860  164.6700 C   0  0  1  0  0  0  0  0  0  0  0  0
   -1.1110   51.3470  166.1860 C   0  0  0  0  0  0  0  0  0  0  0  0
   -0.1110   50.2180  166.6220 C   0  0  0  0  0  0  0  0  0  0  0  0
    0.7560   49.9510  165.3560 C   0  0  2  0  0  0  0  0  0  0  0  0
    2.1770   49.9410  165.7270 O   0  0  0  0  0  0  0  0  0  0  0  0
    1.1740   52.3410  164.5950 C   0  0  0  0  0  0  0  0  0  0  0  0
   -1.2780   52.2090  159.5700 H   0  0  0  0  0  0  0  0  0  0  0  0
   -2.4110   53.7420  157.9970 H   0  0  0  0  0  0  0  0  0  0  0  0
   -4.0130   55.2520  157.7180 H   0  0  0  0  0  0  0  0  0  0  0  0
   -5.0960   55.0440  161.1380 H   0  0  0  0  0  0  0  0  0  0  0  0
   -5.1910   53.1780  163.1760 H   0  0  0  0  0  0  0  0  0  0  0  0
   -4.0150   54.4500  163.6490 H   0  0  0  0  0  0  0  0  0  0  0  0
   -3.8880   51.4560  164.0140 H   0  0  0  0  0  0  0  0  0  0  0  0
   -3.4490   52.7800  165.1460 H   0  0  0  0  0  0  0  0  0  0  0  0
   -1.3990   53.2180  163.8520 H   0  0  0  0  0  0  0  0  0  0  0  0
   -2.2980   50.7820  162.1780 H   0  0  0  0  0  0  0  0  0  0  0  0
    0.1770   52.5550  161.9560 H   0  0  0  0  0  0  0  0  0  0  0  0
   -0.2420   51.1690  160.8940 H   0  0  0  0  0  0  0  0  0  0  0  0
    1.5170   50.6250  162.5660 H   0  0  0  0  0  0  0  0  0  0  0  0
    0.0460   49.6070  162.7360 H   0  0  0  0  0  0  0  0  0  0  0  0
   -1.6950   50.2330  164.4680 H   0  0  0  0  0  0  0  0  0  0  0  0
   -2.1000   51.1980  166.6450 H   0  0  0  0  0  0  0  0  0  0  0  0
   -0.7260   52.3410  166.4600 H   0  0  0  0  0  0  0  0  0  0  0  0
   -0.6570   49.3090  166.9180 H   0  0  0  0  0  0  0  0  0  0  0  0
    0.5170   50.5570  167.4590 H   0  0  0  0  0  0  0  0  0  0  0  0
    0.5110   48.9620  164.9410 H   0  0  0  0  0  0  0  0  0  0  0  0
    2.4670   50.8310  165.8890 H   0  0  0  0  0  0  0  0  0  0  0  0
    0.8760   52.7730  165.5620 H   0  0  0  0  0  0  0  0  0  0  0  0
    0.9870   53.0710  163.7940 H   0  0  0  0  0  0  0  0  0  0  0  0
    2.2450   52.0910  164.6200 H   0  0  0  0  0  0  0  0  0  0  0  0
  1  2  2  0  0  0  0
  1 11  1  0  0  0  0
  1 21  1  0  0  0  0
  2  3  1  0  0  0  0
  2 22  1  0  0  0  0
  3  4  1  0  0  0  0
  3  5  2  0  0  0  0
  4 23  1  0  0  0  0
  5  6  1  0  0  0  0
  5 24  1  0  0  0  0
  6  7  1  0  0  0  0
  6 11  2  0  0  0  0
  7  8  1  0  0  0  0
  7 25  1  0  0  0  0
  7 26  1  0  0  0  0
  8  9  1  0  0  0  0
  8 27  1  0  0  0  0
  8 28  1  0  0  0  0
  9 10  1  0  0  0  0
  9 15  1  0  0  0  0
  9 29  1  0  0  0  0
 10 11  1  0  0  0  0
 10 12  1  0  0  0  0
 10 30  1  0  0  0  0
 12 13  1  0  0  0  0
 12 31  1  0  0  0  0
 12 32  1  0  0  0  0
 13 14  1  0  0  0  0
 13 33  1  0  0  0  0
 13 34  1  0  0  0  0
 14 15  1  0  0  0  0
 14 18  1  0  0  0  0
 14 20  1  0  0  0  0
 15 16  1  0  0  0  0
 15 35  1  0  0  0  0
 16 17  1  0  0  0  0
 16 36  1  0  0  0  0
 16 37  1  0  0  0  0
 17 18  1  0  0  0  0
 17 38  1  0  0  0  0
 17 39  1  0  0  0  0
 18 19  1  0  0  0  0
 18 40  1  0  0  0  0
 19 41  1  0  0  0  0
 20 42  1  0  0  0  0
 20 43  1  0  0  0  0
 20 44  1  0  0  0  0
M  END
$$$$
1qkt_608
  -OEChem-01202217033D

 44 47  0     1  0  0  0  0  0999 V2000
    2.7690   50.2000  164.8980 C   0  0  0  0  0  0  0  0  0  0  0  0
    4.1000   50.5860  165.0960 C   0  0  0  0  0  0  0  0  0  0  0  0
    4.3980   51.8840  165.5740 C   0  0  0  0  0  0  0  0  0  0  0  0
    5.7190   52.2390  165.7610 O   0  0  0  0  0  0  0  0  0  0  0  0
    3.3580   52.8070  165.8550 C   0  0  0  0  0  0  0  0  0  0  0  0
    1.9820   52.4280  165.6520 C   0  0  0  0  0  0  0  0  0  0  0  0
    0.8580   53.4380  165.9440 C   0  0  0  0  0  0  0  0  0  0  0  0
   -0.5850   52.9360  165.6530 C   0  0  0  0  0  0  0  0  0  0  0  0
   -0.7680   51.4320  165.8790 C   0  0  2  0  0  0  0  0  0  0  0  0
    0.2270   50.6510  164.9480 C   0  0  1  0  0  0  0  0  0  0  0  0
    1.6850   51.0900  165.1690 C   0  0  0  0  0  0  0  0  0  0  0  0
    0.0200   49.1410  165.1780 C   0  0  0  0  0  0  0  0  0  0  0  0
   -1.4170   48.6420  164.9700 C   0  0  0  0  0  0  0  0  0  0  0  0
   -2.4300   49.4120  165.8270 C   0  0  1  0  0  0  0  0  0  0  0  0
   -2.2390   50.9420  165.5540 C   0  0  1  0  0  0  0  0  0  0  0  0
   -3.4590   51.5110  166.2740 C   0  0  0  0  0  0  0  0  0  0  0  0
   -4.6250   50.5690  165.8080 C   0  0  0  0  0  0  0  0  0  0  0  0
   -3.9200   49.2370  165.4150 C   0  0  2  0  0  0  0  0  0  0  0  0
   -4.6220   48.1070  166.0380 O   0  0  0  0  0  0  0  0  0  0  0  0
   -2.2760   49.0210  167.3440 C   0  0  0  0  0  0  0  0  0  0  0  0
    2.5550   49.2010  164.5320 H   0  0  0  0  0  0  0  0  0  0  0  0
    4.9030   49.8900  164.8820 H   0  0  0  0  0  0  0  0  0  0  0  0
    6.2780   51.5090  165.5250 H   0  0  0  0  0  0  0  0  0  0  0  0
    3.5980   53.7980  166.2240 H   0  0  0  0  0  0  0  0  0  0  0  0
    1.0360   54.3310  165.3280 H   0  0  0  0  0  0  0  0  0  0  0  0
    0.9140   53.7100  167.0080 H   0  0  0  0  0  0  0  0  0  0  0  0
   -0.8270   53.1610  164.6040 H   0  0  0  0  0  0  0  0  0  0  0  0
   -1.2800   53.4730  166.3150 H   0  0  0  0  0  0  0  0  0  0  0  0
   -0.5430   51.2040  166.9310 H   0  0  0  0  0  0  0  0  0  0  0  0
   -0.0290   50.8760  163.9020 H   0  0  0  0  0  0  0  0  0  0  0  0
    0.3140   48.9100  166.2130 H   0  0  0  0  0  0  0  0  0  0  0  0
    0.6750   48.5970  164.4810 H   0  0  0  0  0  0  0  0  0  0  0  0
   -1.4640   47.5770  165.2370 H   0  0  0  0  0  0  0  0  0  0  0  0
   -1.6840   48.7670  163.9100 H   0  0  0  0  0  0  0  0  0  0  0  0
   -2.3760   51.1380  164.4800 H   0  0  0  0  0  0  0  0  0  0  0  0
   -3.6470   52.5520  165.9700 H   0  0  0  0  0  0  0  0  0  0  0  0
   -3.3290   51.4670  167.3660 H   0  0  0  0  0  0  0  0  0  0  0  0
   -5.1510   51.0000  164.9430 H   0  0  0  0  0  0  0  0  0  0  0  0
   -5.3420   50.4020  166.6260 H   0  0  0  0  0  0  0  0  0  0  0  0
   -3.9670   49.1000  164.3240 H   0  0  0  0  0  0  0  0  0  0  0  0
   -4.4220   48.0830  166.9660 H   0  0  0  0  0  0  0  0  0  0  0  0
   -2.8070   49.7560  167.9670 H   0  0  0  0  0  0  0  0  0  0  0  0
   -1.2100   49.0130  167.6140 H   0  0  0  0  0  0  0  0  0  0  0  0
   -2.7050   48.0230  167.5100 H   0  0  0  0  0  0  0  0  0  0  0  0
  1  2  2  0  0  0  0
  1 11  1  0  0  0  0
  1 21  1  0  0  0  0
  2  3  1  0  0  0  0
  2 22  1  0  0  0  0
  3  4  1  0  0  0  0
  3  5  2  0  0  0  0
  4 23  1  0  0  0  0
  5  6  1  0  0  0  0
  5 24  1  0  0  0  0
  6  7  1  0  0  0  0
  6 11  2  0  0  0  0
  7  8  1  0  0  0  0
  7 25  1  0  0  0  0
  7 26  1  0  0  0  0
  8  9  1  0  0  0  0
  8 27  1  0  0  0  0
  8 28  1  0  0  0  0
  9 10  1  0  0  0  0
  9 15  1  0  0  0  0
  9 29  1  0  0  0  0
 10 11  1  0  0  0  0
 10 12  1  0  0  0  0
 10 30  1  0  0  0  0
 12 13  1  0  0  0  0
 12 31  1  0  0  0  0
 12 32  1  0  0  0  0
 13 14  1  0  0  0  0
 13 33  1  0  0  0  0
 13 34  1  0  0  0  0
 14 15  1  0  0  0  0
 14 18  1  0  0  0  0
 14 20  1  0  0  0  0
 15 16  1  0  0  0  0
 15 35  1  0  0  0  0
 16 17  1  0  0  0  0
 16 36  1  0  0  0  0
 16 37  1  0  0  0  0
 17 18  1  0  0  0  0
 17 38  1  0  0  0  0
 17 39  1  0  0  0  0
 18 19  1  0  0  0  0
 18 40  1  0  0  0  0
 19 41  1  0  0  0  0
 20 42  1  0  0  0  0
 20 43  1  0  0  0  0
 20 44  1  0  0  0  0
M  END
$$$$
1qkt_636
  -OEChem-01202217033D

 44 47  0     1  0  0  0  0  0999 V2000
    0.2620   52.7100  166.3320 C   0  0  0  0  0  0  0  0  0  0  0  0
    1.4210   53.4570  166.0910 C   0  0  0  0  0  0  0  0  0  0  0  0
    2.6040   52.8120  165.6610 C   0  0  0  0  0  0  0  0  0  0  0  0
    3.7330   53.5720  165.4290 O   0  0  0  0  0  0  0  0  0  0  0  0
    2.6320   51.4060  165.4700 C   0  0  0  0  0  0  0  0  0  0  0  0
    1.4480   50.6200  165.7190 C   0  0  0  0  0  0  0  0  0  0  0  0
    1.4890   49.0930  165.5260 C   0  0  0  0  0  0  0  0  0  0  0  0
    0.1670   48.3430  165.8600 C   0  0  0  0  0  0  0  0  0  0  0  0
   -1.0930   49.1640  165.5740 C   0  0  2  0  0  0  0  0  0  0  0  0
   -1.0450   50.4860  166.4210 C   0  0  1  0  0  0  0  0  0  0  0  0
    0.2360   51.2930  166.1530 C   0  0  0  0  0  0  0  0  0  0  0  0
   -2.3270   51.2920  166.1300 C   0  0  0  0  0  0  0  0  0  0  0  0
   -3.6400   50.5380  166.3820 C   0  0  0  0  0  0  0  0  0  0  0  0
   -3.7080   49.2140  165.6080 C   0  0  1  0  0  0  0  0  0  0  0  0
   -2.4230   48.3860  165.9430 C   0  0  1  0  0  0  0  0  0  0  0  0
   -2.7790   47.0440  165.3070 C   0  0  0  0  0  0  0  0  0  0  0  0
   -4.2550   46.8000  165.7830 C   0  0  0  0  0  0  0  0  0  0  0  0
   -4.8130   48.2240  166.0800 C   0  0  2  0  0  0  0  0  0  0  0  0
   -6.1240   48.3820  165.4390 O   0  0  0  0  0  0  0  0  0  0  0  0
   -3.8980   49.4850  164.0700 C   0  0  0  0  0  0  0  0  0  0  0  0
   -0.6380   53.2190  166.6610 H   0  0  0  0  0  0  0  0  0  0  0  0
    1.4130   54.5310  166.2350 H   0  0  0  0  0  0  0  0  0  0  0  0
    3.5400   54.4850  165.6050 H   0  0  0  0  0  0  0  0  0  0  0  0
    3.5430   50.9220  165.1380 H   0  0  0  0  0  0  0  0  0  0  0  0
    2.2800   48.6910  166.1740 H   0  0  0  0  0  0  0  0  0  0  0  0
    1.7370   48.8910  164.4750 H   0  0  0  0  0  0  0  0  0  0  0  0
    0.1770   48.0820  166.9280 H   0  0  0  0  0  0  0  0  0  0  0  0
    0.1280   47.4240  165.2570 H   0  0  0  0  0  0  0  0  0  0  0  0
   -1.1150   49.4130  164.5030 H   0  0  0  0  0  0  0  0  0  0  0  0
   -1.0460   50.2140  167.4860 H   0  0  0  0  0  0  0  0  0  0  0  0
   -2.3060   51.5980  165.0730 H   0  0  0  0  0  0  0  0  0  0  0  0
   -2.3200   52.1870  166.7700 H   0  0  0  0  0  0  0  0  0  0  0  0
   -4.4800   51.1750  166.0670 H   0  0  0  0  0  0  0  0  0  0  0  0
   -3.7250   50.3240  167.4570 H   0  0  0  0  0  0  0  0  0  0  0  0
   -2.3690   48.2250  167.0310 H   0  0  0  0  0  0  0  0  0  0  0  0
   -2.1120   46.2470  165.6680 H   0  0  0  0  0  0  0  0  0  0  0  0
   -2.7230   47.1000  164.2090 H   0  0  0  0  0  0  0  0  0  0  0  0
   -4.2730   46.1780  166.6900 H   0  0  0  0  0  0  0  0  0  0  0  0
   -4.8430   46.3110  164.9910 H   0  0  0  0  0  0  0  0  0  0  0  0
   -4.9520   48.3490  167.1640 H   0  0  0  0  0  0  0  0  0  0  0  0
   -6.0070   48.4900  164.5020 H   0  0  0  0  0  0  0  0  0  0  0  0
   -3.6810   48.5660  163.5060 H   0  0  0  0  0  0  0  0  0  0  0  0
   -3.2110   50.2820  163.7510 H   0  0  0  0  0  0  0  0  0  0  0  0
   -4.9350   49.7960  163.8780 H   0  0  0  0  0  0  0  0  0  0  0  0
  1  2  2  0  0  0  0
  1 11  1  0  0  0  0
  1 21  1  0  0  0  0
  2  3  1  0  0  0  0
  2 22  1  0  0  0  0
  3  4  1  0  0  0  0
  3  5  2  0  0  0  0
  4 23  1  0  0  0  0
  5  6  1  0  0  0  0
  5 24  1  0  0  0  0
  6  7  1  0  0  0  0
  6 11  2  0  0  0  0
  7  8  1  0  0  0  0
  7 25  1  0  0  0  0
  7 26  1  0  0  0  0
  8  9  1  0  0  0  0
  8 27  1  0  0  0  0
  8 28  1  0  0  0  0
  9 10  1  0  0  0  0
  9 15  1  0  0  0  0
  9 29  1  0  0  0  0
 10 11  1  0  0  0  0
 10 12  1  0  0  0  0
 10 30  1  0  0  0  0
 12 13  1  0  0  0  0
 12 31  1  0  0  0  0
 12 32  1  0  0  0  0
 13 14  1  0  0  0  0
 13 33  1  0  0  0  0
 13 34  1  0  0  0  0
 14 15  1  0  0  0  0
 14 18  1  0  0  0  0
 14 20  1  0  0  0  0
 15 16  1  0  0  0  0
 15 35  1  0  0  0  0
 16 17  1  0  0  0  0
 16 36  1  0  0  0  0
 16 37  1  0  0  0  0
 17 18  1  0  0  0  0
 17 38  1  0  0  0  0
 17 39  1  0  0  0  0
 18 19  1  0  0  0  0
 18 40  1  0  0  0  0
 19 41  1  0  0  0  0
 20 42  1  0  0  0  0
 20 43  1  0  0  0  0
 20 44  1  0  0  0  0
M  END
$$$$
1qkt_640
  -OEChem-01202217033D

 44 47  0     1  0  0  0  0  0999 V2000
    2.7060   52.4900  166.2800 C   0  0  0  0  0  0  0  0  0  0  0  0
    4.0610   52.6060  165.9480 C   0  0  0  0  0  0  0  0  0  0  0  0
    4.6960   51.5910  165.1940 C   0  0  0  0  0  0  0  0  0  0  0  0
    6.0320   51.7310  164.8790 O   0  0  0  0  0  0  0  0  0  0  0  0
    3.9720   50.4460  164.7700 C   0  0  0  0  0  0  0  0  0  0  0  0
    2.5770   50.3070  165.1080 C   0  0  0  0  0  0  0  0  0  0  0  0
    1.8010   49.0560  164.6590 C   0  0  0  0  0  0  0  0  0  0  0  0
    0.3150   48.9940  165.1130 C   0  0  0  0  0  0  0  0  0  0  0  0
   -0.3530   50.3670  165.2180 C   0  0  2  0  0  0  0  0  0  0  0  0
    0.4440   51.2450  166.2480 C   0  0  1  0  0  0  0  0  0  0  0  0
    1.9320   51.3590  165.8760 C   0  0  0  0  0  0  0  0  0  0  0  0
   -0.2490   52.6190  166.3510 C   0  0  0  0  0  0  0  0  0  0  0  0
   -1.7380   52.5690  166.7230 C   0  0  0  0  0  0  0  0  0  0  0  0
   -2.5470   51.6820  165.7670 C   0  0  1  0  0  0  0  0  0  0  0  0
   -1.8590   50.2770  165.7030 C   0  0  1  0  0  0  0  0  0  0  0  0
   -2.9100   49.4830  164.9330 C   0  0  0  0  0  0  0  0  0  0  0  0
   -4.2540   49.8860  165.6380 C   0  0  0  0  0  0  0  0  0  0  0  0
   -3.9630   51.2780  166.2720 C   0  0  2  0  0  0  0  0  0  0  0  0
   -5.0470   52.2090  165.9330 O   0  0  0  0  0  0  0  0  0  0  0  0
   -2.6910   52.3760  164.3620 C   0  0  0  0  0  0  0  0  0  0  0  0
    2.2330   53.2760  166.8580 H   0  0  0  0  0  0  0  0  0  0  0  0
    4.6240   53.4750  166.2680 H   0  0  0  0  0  0  0  0  0  0  0  0
    6.3580   52.5470  165.2380 H   0  0  0  0  0  0  0  0  0  0  0  0
    4.4680   49.6750  164.1900 H   0  0  0  0  0  0  0  0  0  0  0  0
    2.3170   48.1740  165.0650 H   0  0  0  0  0  0  0  0  0  0  0  0
    1.8220   49.0200  163.5610 H   0  0  0  0  0  0  0  0  0  0  0  0
    0.2730   48.5100  166.1000 H   0  0  0  0  0  0  0  0  0  0  0  0
   -0.2450   48.3900  164.3840 H   0  0  0  0  0  0  0  0  0  0  0  0
   -0.3280   50.8470  164.2290 H   0  0  0  0  0  0  0  0  0  0  0  0
    0.3880   50.7590  167.2330 H   0  0  0  0  0  0  0  0  0  0  0  0
   -0.1580   53.1210  165.3760 H   0  0  0  0  0  0  0  0  0  0  0  0
    0.2740   53.2090  167.1180 H   0  0  0  0  0  0  0  0  0  0  0  0
   -2.1460   53.5900  166.6880 H   0  0  0  0  0  0  0  0  0  0  0  0
   -1.8340   52.1700  167.7430 H   0  0  0  0  0  0  0  0  0  0  0  0
   -1.8080   49.8520  166.7170 H   0  0  0  0  0  0  0  0  0  0  0  0
   -2.7290   48.4010  165.0190 H   0  0  0  0  0  0  0  0  0  0  0  0
   -2.9220   49.7690  163.8700 H   0  0  0  0  0  0  0  0  0  0  0  0
   -4.5200   49.1530  166.4150 H   0  0  0  0  0  0  0  0  0  0  0  0
   -5.0720   49.9560  164.9060 H   0  0  0  0  0  0  0  0  0  0  0  0
   -3.9290   51.1880  167.3680 H   0  0  0  0  0  0  0  0  0  0  0  0
   -4.9670   52.4690  165.0230 H   0  0  0  0  0  0  0  0  0  0  0  0
   -3.0300   51.6360  163.6220 H   0  0  0  0  0  0  0  0  0  0  0  0
   -1.7180   52.7840  164.0540 H   0  0  0  0  0  0  0  0  0  0  0  0
   -3.4260   53.1900  164.4290 H   0  0  0  0  0  0  0  0  0  0  0  0
  1  2  2  0  0  0  0
  1 11  1  0  0  0  0
  1 21  1  0  0  0  0
  2  3  1  0  0  0  0
  2 22  1  0  0  0  0
  3  4  1  0  0  0  0
  3  5  2  0  0  0  0
  4 23  1  0  0  0  0
  5  6  1  0  0  0  0
  5 24  1  0  0  0  0
  6  7  1  0  0  0  0
  6 11  2  0  0  0  0
  7  8  1  0  0  0  0
  7 25  1  0  0  0  0
  7 26  1  0  0  0  0
  8  9  1  0  0  0  0
  8 27  1  0  0  0  0
  8 28  1  0  0  0  0
  9 10  1  0  0  0  0
  9 15  1  0  0  0  0
  9 29  1  0  0  0  0
 10 11  1  0  0  0  0
 10 12  1  0  0  0  0
 10 30  1  0  0  0  0
 12 13  1  0  0  0  0
 12 31  1  0  0  0  0
 12 32  1  0  0  0  0
 13 14  1  0  0  0  0
 13 33  1  0  0  0  0
 13 34  1  0  0  0  0
 14 15  1  0  0  0  0
 14 18  1  0  0  0  0
 14 20  1  0  0  0  0
 15 16  1  0  0  0  0
 15 35  1  0  0  0  0
 16 17  1  0  0  0  0
 16 36  1  0  0  0  0
 16 37  1  0  0  0  0
 17 18  1  0  0  0  0
 17 38  1  0  0  0  0
 17 39  1  0  0  0  0
 18 19  1  0  0  0  0
 18 40  1  0  0  0  0
 19 41  1  0  0  0  0
 20 42  1  0  0  0  0
 20 43  1  0  0  0  0
 20 44  1  0  0  0  0
M  END
$$$$
1qkt_642
  -OEChem-01202217033D

 44 47  0     1  0  0  0  0  0999 V2000
   -6.2320   54.8090  160.1640 C   0  0  0  0  0  0  0  0  0  0  0  0
   -6.0100   55.1960  158.8360 C   0  0  0  0  0  0  0  0  0  0  0  0
   -4.6890   55.2900  158.3370 C   0  0  0  0  0  0  0  0  0  0  0  0
   -4.4980   55.6720  157.0240 O   0  0  0  0  0  0  0  0  0  0  0  0
   -3.5780   54.9990  159.1710 C   0  0  0  0  0  0  0  0  0  0  0  0
   -3.7890   54.6050  160.5420 C   0  0  0  0  0  0  0  0  0  0  0  0
   -2.5810   54.3060  161.4480 C   0  0  0  0  0  0  0  0  0  0  0  0
   -2.9240   53.9280  162.9170 C   0  0  0  0  0  0  0  0  0  0  0  0
   -4.2520   53.1810  163.0640 C   0  0  2  0  0  0  0  0  0  0  0  0
   -5.4090   54.0790  162.4990 C   0  0  1  0  0  0  0  0  0  0  0  0
   -5.1490   54.5030  161.0440 C   0  0  0  0  0  0  0  0  0  0  0  0
   -6.7390   53.3160  162.6670 C   0  0  0  0  0  0  0  0  0  0  0  0
   -7.0550   52.8690  164.1010 C   0  0  0  0  0  0  0  0  0  0  0  0
   -5.9260   52.0260  164.7100 C   0  0  1  0  0  0  0  0  0  0  0  0
   -4.5880   52.8270  164.5720 C   0  0  1  0  0  0  0  0  0  0  0  0
   -3.6580   51.9730  165.4290 C   0  0  0  0  0  0  0  0  0  0  0  0
   -4.5090   51.6990  166.7200 C   0  0  0  0  0  0  0  0  0  0  0  0
   -5.9880   51.8460  166.2540 C   0  0  2  0  0  0  0  0  0  0  0  0
   -6.7690   50.6970  166.7290 O   0  0  0  0  0  0  0  0  0  0  0  0
   -5.8780   50.6040  164.0380 C   0  0  0  0  0  0  0  0  0  0  0  0
   -7.2500   54.7400  160.5320 H   0  0  0  0  0  0  0  0  0  0  0  0
   -6.8500   55.4220  158.1900 H   0  0  0  0  0  0  0  0  0  0  0  0
   -5.3400   55.8280  156.6150 H   0  0  0  0  0  0  0  0  0  0  0  0
   -2.5710   55.0730  158.7780 H   0  0  0  0  0  0  0  0  0  0  0  0
   -1.9430   55.2010  161.4680 H   0  0  0  0  0  0  0  0  0  0  0  0
   -2.0240   53.4690  161.0040 H   0  0  0  0  0  0  0  0  0  0  0  0
   -2.9780   54.8530  163.5100 H   0  0  0  0  0  0  0  0  0  0  0  0
   -2.1200   53.2880  163.3080 H   0  0  0  0  0  0  0  0  0  0  0  0
   -4.1950   52.2460  162.4860 H   0  0  0  0  0  0  0  0  0  0  0  0
   -5.4620   54.9960  163.1040 H   0  0  0  0  0  0  0  0  0  0  0  0
   -6.7010   52.4200  162.0310 H   0  0  0  0  0  0  0  0  0  0  0  0
   -7.5540   53.9730  162.3270 H   0  0  0  0  0  0  0  0  0  0  0  0
   -7.9770   52.2700  164.0900 H   0  0  0  0  0  0  0  0  0  0  0  0
   -7.2050   53.7620  164.7250 H   0  0  0  0  0  0  0  0  0  0  0  0
   -4.6950   53.8000  165.0760 H   0  0  0  0  0  0  0  0  0  0  0  0
   -2.7350   52.5200  165.6740 H   0  0  0  0  0  0  0  0  0  0  0  0
   -3.4030   51.0330  164.9190 H   0  0  0  0  0  0  0  0  0  0  0  0
   -4.2730   52.4350  167.5040 H   0  0  0  0  0  0  0  0  0  0  0  0
   -4.3210   50.6840  167.1020 H   0  0  0  0  0  0  0  0  0  0  0  0
   -6.4270   52.7550  166.6940 H   0  0  0  0  0  0  0  0  0  0  0  0
   -6.5530   49.9320  166.2100 H   0  0  0  0  0  0  0  0  0  0  0  0
   -4.9240   50.1150  164.2810 H   0  0  0  0  0  0  0  0  0  0  0  0
   -5.9680   50.7110  162.9470 H   0  0  0  0  0  0  0  0  0  0  0  0
   -6.7100   49.9920  164.4160 H   0  0  0  0  0  0  0  0  0  0  0  0
  1  2  2  0  0  0  0
  1 11  1  0  0  0  0
  1 21  1  0  0  0  0
  2  3  1  0  0  0  0
  2 22  1  0  0  0  0
  3  4  1  0  0  0  0
  3  5  2  0  0  0  0
  4 23  1  0  0  0  0
  5  6  1  0  0  0  0
  5 24  1  0  0  0  0
  6  7  1  0  0  0  0
  6 11  2  0  0  0  0
  7  8  1  0  0  0  0
  7 25  1  0  0  0  0
  7 26  1  0  0  0  0
  8  9  1  0  0  0  0
  8 27  1  0  0  0  0
  8 28  1  0  0  0  0
  9 10  1  0  0  0  0
  9 15  1  0  0  0  0
  9 29  1  0  0  0  0
 10 11  1  0  0  0  0
 10 12  1  0  0  0  0
 10 30  1  0  0  0  0
 12 13  1  0  0  0  0
 12 31  1  0  0  0  0
 12 32  1  0  0  0  0
 13 14  1  0  0  0  0
 13 33  1  0  0  0  0
 13 34  1  0  0  0  0
 14 15  1  0  0  0  0
 14 18  1  0  0  0  0
 14 20  1  0  0  0  0
 15 16  1  0  0  0  0
 15 35  1  0  0  0  0
 16 17  1  0  0  0  0
 16 36  1  0  0  0  0
 16 37  1  0  0  0  0
 17 18  1  0  0  0  0
 17 38  1  0  0  0  0
 17 39  1  0  0  0  0
 18 19  1  0  0  0  0
 18 40  1  0  0  0  0
 19 41  1  0  0  0  0
 20 42  1  0  0  0  0
 20 43  1  0  0  0  0
 20 44  1  0  0  0  0
M  END
$$$$
1qkt_647
  -OEChem-01202217033D

 44 47  0     1  0  0  0  0  0999 V2000
   -6.1940   54.3380  160.3310 C   0  0  0  0  0  0  0  0  0  0  0  0
   -5.9250   54.9700  159.1100 C   0  0  0  0  0  0  0  0  0  0  0  0
   -4.6130   55.4110  158.8150 C   0  0  0  0  0  0  0  0  0  0  0  0
   -4.3740   56.0300  157.6040 O   0  0  0  0  0  0  0  0  0  0  0  0
   -3.5600   55.2230  159.7470 C   0  0  0  0  0  0  0  0  0  0  0  0
   -3.8210   54.5790  161.0110 C   0  0  0  0  0  0  0  0  0  0  0  0
   -2.6780   54.3920  162.0250 C   0  0  0  0  0  0  0  0  0  0  0  0
   -3.0820   53.7210  163.3690 C   0  0  0  0  0  0  0  0  0  0  0  0
   -4.2180   52.7040  163.2310 C   0  0  2  0  0  0  0  0  0  0  0  0
   -5.4800   53.4260  162.6380 C   0  0  1  0  0  0  0  0  0  0  0  0
   -5.1690   54.1220  161.3020 C   0  0  0  0  0  0  0  0  0  0  0  0
   -6.6170   52.3910  162.5170 C   0  0  0  0  0  0  0  0  0  0  0  0
   -6.9740   51.6640  163.8210 C   0  0  0  0  0  0  0  0  0  0  0  0
   -5.7570   50.9830  164.4610 C   0  0  1  0  0  0  0  0  0  0  0  0
   -4.6240   52.0520  164.6170 C   0  0  1  0  0  0  0  0  0  0  0  0
   -3.6230   51.2800  165.4720 C   0  0  0  0  0  0  0  0  0  0  0  0
   -4.5230   50.6340  166.5850 C   0  0  0  0  0  0  0  0  0  0  0  0
   -5.9400   50.5480  165.9440 C   0  0  2  0  0  0  0  0  0  0  0  0
   -6.4910   49.2030  166.1480 O   0  0  0  0  0  0  0  0  0  0  0  0
   -5.3230   49.7270  163.6170 C   0  0  0  0  0  0  0  0  0  0  0  0
   -7.2040   54.0040  160.5430 H   0  0  0  0  0  0  0  0  0  0  0  0
   -6.7210   55.1210  158.3910 H   0  0  0  0  0  0  0  0  0  0  0  0
   -5.1820   56.0740  157.1080 H   0  0  0  0  0  0  0  0  0  0  0  0
   -2.5580   55.5630  159.5090 H   0  0  0  0  0  0  0  0  0  0  0  0
   -2.2610   55.3830  162.2530 H   0  0  0  0  0  0  0  0  0  0  0  0
   -1.9050   53.7680  161.5540 H   0  0  0  0  0  0  0  0  0  0  0  0
   -3.4030   54.5080  164.0680 H   0  0  0  0  0  0  0  0  0  0  0  0
   -2.2010   53.2040  163.7770 H   0  0  0  0  0  0  0  0  0  0  0  0
   -3.8940   51.9070  162.5460 H   0  0  0  0  0  0  0  0  0  0  0  0
   -5.7990   54.2030  163.3470 H   0  0  0  0  0  0  0  0  0  0  0  0
   -6.3130   51.6350  161.7780 H   0  0  0  0  0  0  0  0  0  0  0  0
   -7.5170   52.9130  162.1600 H   0  0  0  0  0  0  0  0  0  0  0  0
   -7.7340   50.8990  163.6040 H   0  0  0  0  0  0  0  0  0  0  0  0
   -7.3840   52.3950  164.5330 H   0  0  0  0  0  0  0  0  0  0  0  0
   -4.9970   52.8880  165.2280 H   0  0  0  0  0  0  0  0  0  0  0  0
   -2.8760   51.9570  165.9130 H   0  0  0  0  0  0  0  0  0  0  0  0
   -3.1120   50.5050  164.8800 H   0  0  0  0  0  0  0  0  0  0  0  0
   -4.5410   51.2660  167.4850 H   0  0  0  0  0  0  0  0  0  0  0  0
   -4.1550   49.6310  166.8490 H   0  0  0  0  0  0  0  0  0  0  0  0
   -6.6130   51.2650  166.4370 H   0  0  0  0  0  0  0  0  0  0  0  0
   -6.0560   48.5910  165.5660 H   0  0  0  0  0  0  0  0  0  0  0  0
   -4.3150   49.4120  163.9220 H   0  0  0  0  0  0  0  0  0  0  0  0
   -5.3190   49.9870  162.5490 H   0  0  0  0  0  0  0  0  0  0  0  0
   -6.0330   48.9060  163.7920 H   0  0  0  0  0  0  0  0  0  0  0  0
  1  2  2  0  0  0  0
  1 11  1  0  0  0  0
  1 21  1  0  0  0  0
  2  3  1  0  0  0  0
  2 22  1  0  0  0  0
  3  4  1  0  0  0  0
  3  5  2  0  0  0  0
  4 23  1  0  0  0  0
  5  6  1  0  0  0  0
  5 24  1  0  0  0  0
  6  7  1  0  0  0  0
  6 11  2  0  0  0  0
  7  8  1  0  0  0  0
  7 25  1  0  0  0  0
  7 26  1  0  0  0  0
  8  9  1  0  0  0  0
  8 27  1  0  0  0  0
  8 28  1  0  0  0  0
  9 10  1  0  0  0  0
  9 15  1  0  0  0  0
  9 29  1  0  0  0  0
 10 11  1  0  0  0  0
 10 12  1  0  0  0  0
 10 30  1  0  0  0  0
 12 13  1  0  0  0  0
 12 31  1  0  0  0  0
 12 32  1  0  0  0  0
 13 14  1  0  0  0  0
 13 33  1  0  0  0  0
 13 34  1  0  0  0  0
 14 15  1  0  0  0  0
 14 18  1  0  0  0  0
 14 20  1  0  0  0  0
 15 16  1  0  0  0  0
 15 35  1  0  0  0  0
 16 17  1  0  0  0  0
 16 36  1  0  0  0  0
 16 37  1  0  0  0  0
 17 18  1  0  0  0  0
 17 38  1  0  0  0  0
 17 39  1  0  0  0  0
 18 19  1  0  0  0  0
 18 40  1  0  0  0  0
 19 41  1  0  0  0  0
 20 42  1  0  0  0  0
 20 43  1  0  0  0  0
 20 44  1  0  0  0  0
M  END
$$$$
1qkt_655
  -OEChem-01202217033D

 44 47  0     1  0  0  0  0  0999 V2000
   -3.7020   53.3350  160.8320 C   0  0  0  0  0  0  0  0  0  0  0  0
   -3.5150   54.4540  160.0120 C   0  0  0  0  0  0  0  0  0  0  0  0
   -4.5480   55.4100  159.8710 C   0  0  0  0  0  0  0  0  0  0  0  0
   -4.3380   56.5060  159.0570 O   0  0  0  0  0  0  0  0  0  0  0  0
   -5.7820   55.2470  160.5530 C   0  0  0  0  0  0  0  0  0  0  0  0
   -5.9930   54.0970  161.3970 C   0  0  0  0  0  0  0  0  0  0  0  0
   -7.3400   53.9160  162.1220 C   0  0  0  0  0  0  0  0  0  0  0  0
   -7.4710   52.6220  162.9740 C   0  0  0  0  0  0  0  0  0  0  0  0
   -6.1490   52.1560  163.5910 C   0  0  2  0  0  0  0  0  0  0  0  0
   -5.1140   51.8910  162.4400 C   0  0  1  0  0  0  0  0  0  0  0  0
   -4.9240   53.1250  161.5420 C   0  0  0  0  0  0  0  0  0  0  0  0
   -3.7940   51.4110  163.0780 C   0  0  0  0  0  0  0  0  0  0  0  0
   -3.9210   50.1790  163.9850 C   0  0  0  0  0  0  0  0  0  0  0  0
   -4.9590   50.3790  165.0970 C   0  0  1  0  0  0  0  0  0  0  0  0
   -6.3060   50.8250  164.4350 C   0  0  1  0  0  0  0  0  0  0  0  0
   -7.2520   50.7300  165.6290 C   0  0  0  0  0  0  0  0  0  0  0  0
   -6.8860   49.3450  166.2700 C   0  0  0  0  0  0  0  0  0  0  0  0
   -5.4190   49.0800  165.8210 C   0  0  2  0  0  0  0  0  0  0  0  0
   -4.6130   48.6810  166.9820 O   0  0  0  0  0  0  0  0  0  0  0  0
   -4.4230   51.3930  166.1740 C   0  0  0  0  0  0  0  0  0  0  0  0
   -2.9000   52.6110  160.9310 H   0  0  0  0  0  0  0  0  0  0  0  0
   -2.5780   54.5890  159.4850 H   0  0  0  0  0  0  0  0  0  0  0  0
   -3.4670   56.4570  158.6820 H   0  0  0  0  0  0  0  0  0  0  0  0
   -6.5660   55.9870  160.4390 H   0  0  0  0  0  0  0  0  0  0  0  0
   -8.1340   53.9050  161.3620 H   0  0  0  0  0  0  0  0  0  0  0  0
   -7.4830   54.7780  162.7900 H   0  0  0  0  0  0  0  0  0  0  0  0
   -7.8550   51.8180  162.3280 H   0  0  0  0  0  0  0  0  0  0  0  0
   -8.1860   52.8130  163.7880 H   0  0  0  0  0  0  0  0  0  0  0  0
   -5.7700   52.9510  164.2500 H   0  0  0  0  0  0  0  0  0  0  0  0
   -5.5020   51.0800  161.8070 H   0  0  0  0  0  0  0  0  0  0  0  0
   -3.3870   52.2370  163.6800 H   0  0  0  0  0  0  0  0  0  0  0  0
   -3.0920   51.1670  162.2670 H   0  0  0  0  0  0  0  0  0  0  0  0
   -2.9440   49.9760  164.4460 H   0  0  0  0  0  0  0  0  0  0  0  0
   -4.2230   49.3180  163.3700 H   0  0  0  0  0  0  0  0  0  0  0  0
   -6.6230   50.0610  163.7080 H   0  0  0  0  0  0  0  0  0  0  0  0
   -8.3030   50.7480  165.3020 H   0  0  0  0  0  0  0  0  0  0  0  0
   -7.0760   51.5520  166.3390 H   0  0  0  0  0  0  0  0  0  0  0  0
   -7.5550   48.5550  165.8980 H   0  0  0  0  0  0  0  0  0  0  0  0
   -6.9530   49.3950  167.3680 H   0  0  0  0  0  0  0  0  0  0  0  0
   -5.3960   48.2510  165.0970 H   0  0  0  0  0  0  0  0  0  0  0  0
   -4.4400   49.4420  167.5230 H   0  0  0  0  0  0  0  0  0  0  0  0
   -5.2560   51.7290  166.8080 H   0  0  0  0  0  0  0  0  0  0  0  0
   -3.9730   52.2600  165.6680 H   0  0  0  0  0  0  0  0  0  0  0  0
   -3.6650   50.8990  166.7970 H   0  0  0  0  0  0  0  0  0  0  0  0
  1  2  2  0  0  0  0
  1 11  1  0  0  0  0
  1 21  1  0  0  0  0
  2  3  1  0  0  0  0
  2 22  1  0  0  0  0
  3  4  1  0  0  0  0
  3  5  2  0  0  0  0
  4 23  1  0  0  0  0
  5  6  1  0  0  0  0
  5 24  1  0  0  0  0
  6  7  1  0  0  0  0
  6 11  2  0  0  0  0
  7  8  1  0  0  0  0
  7 25  1  0  0  0  0
  7 26  1  0  0  0  0
  8  9  1  0  0  0  0
  8 27  1  0  0  0  0
  8 28  1  0  0  0  0
  9 10  1  0  0  0  0
  9 15  1  0  0  0  0
  9 29  1  0  0  0  0
 10 11  1  0  0  0  0
 10 12  1  0  0  0  0
 10 30  1  0  0  0  0
 12 13  1  0  0  0  0
 12 31  1  0  0  0  0
 12 32  1  0  0  0  0
 13 14  1  0  0  0  0
 13 33  1  0  0  0  0
 13 34  1  0  0  0  0
 14 15  1  0  0  0  0
 14 18  1  0  0  0  0
 14 20  1  0  0  0  0
 15 16  1  0  0  0  0
 15 35  1  0  0  0  0
 16 17  1  0  0  0  0
 16 36  1  0  0  0  0
 16 37  1  0  0  0  0
 17 18  1  0  0  0  0
 17 38  1  0  0  0  0
 17 39  1  0  0  0  0
 18 19  1  0  0  0  0
 18 40  1  0  0  0  0
 19 41  1  0  0  0  0
 20 42  1  0  0  0  0
 20 43  1  0  0  0  0
 20 44  1  0  0  0  0
M  END
$$$$
1qkt_661
  -OEChem-01202217033D

 44 47  0     1  0  0  0  0  0999 V2000
    2.8460   51.0860  165.7790 C   0  0  0  0  0  0  0  0  0  0  0  0
    3.8780   52.0100  165.9870 C   0  0  0  0  0  0  0  0  0  0  0  0
    3.6280   53.3950  165.8480 C   0  0  0  0  0  0  0  0  0  0  0  0
    4.6620   54.2850  166.0590 O   0  0  0  0  0  0  0  0  0  0  0  0
    2.3360   53.8650  165.4950 C   0  0  0  0  0  0  0  0  0  0  0  0
    1.2630   52.9270  165.2720 C   0  0  0  0  0  0  0  0  0  0  0  0
   -0.1320   53.4400  164.8740 C   0  0  0  0  0  0  0  0  0  0  0  0
   -1.2020   52.3400  164.6210 C   0  0  0  0  0  0  0  0  0  0  0  0
   -1.0140   51.0910  165.4870 C   0  0  2  0  0  0  0  0  0  0  0  0
    0.4050   50.4800  165.2010 C   0  0  1  0  0  0  0  0  0  0  0  0
    1.5280   51.5070  165.4250 C   0  0  0  0  0  0  0  0  0  0  0  0
    0.5710   49.2180  166.0710 C   0  0  0  0  0  0  0  0  0  0  0  0
   -0.5210   48.1540  165.8890 C   0  0  0  0  0  0  0  0  0  0  0  0
   -1.9290   48.7210  166.1130 C   0  0  1  0  0  0  0  0  0  0  0  0
   -2.1020   49.9770  165.1940 C   0  0  1  0  0  0  0  0  0  0  0  0
   -3.5970   50.2430  165.3590 C   0  0  0  0  0  0  0  0  0  0  0  0
   -4.2360   48.8170  165.2030 C   0  0  0  0  0  0  0  0  0  0  0  0
   -3.0960   47.8310  165.5950 C   0  0  2  0  0  0  0  0  0  0  0  0
   -3.6100   46.8400  166.5490 O   0  0  0  0  0  0  0  0  0  0  0  0
   -2.1640   49.0230  167.6390 C   0  0  0  0  0  0  0  0  0  0  0  0
    3.0530   50.0270  165.8910 H   0  0  0  0  0  0  0  0  0  0  0  0
    4.8690   51.6630  166.2550 H   0  0  0  0  0  0  0  0  0  0  0  0
    5.4500   53.8050  166.2840 H   0  0  0  0  0  0  0  0  0  0  0  0
    2.1550   54.9290  165.3930 H   0  0  0  0  0  0  0  0  0  0  0  0
   -0.0270   54.0290  163.9510 H   0  0  0  0  0  0  0  0  0  0  0  0
   -0.4980   54.0890  165.6830 H   0  0  0  0  0  0  0  0  0  0  0  0
   -1.1500   52.0400  163.5640 H   0  0  0  0  0  0  0  0  0  0  0  0
   -2.1940   52.7640  164.8340 H   0  0  0  0  0  0  0  0  0  0  0  0
   -1.0820   51.3830  166.5450 H   0  0  0  0  0  0  0  0  0  0  0  0
    0.4430   50.1760  164.1450 H   0  0  0  0  0  0  0  0  0  0  0  0
    0.5720   49.5280  167.1260 H   0  0  0  0  0  0  0  0  0  0  0  0
    1.5390   48.7580  165.8230 H   0  0  0  0  0  0  0  0  0  0  0  0
   -0.3480   47.3420  166.6100 H   0  0  0  0  0  0  0  0  0  0  0  0
   -0.4590   47.7560  164.8650 H   0  0  0  0  0  0  0  0  0  0  0  0
   -1.9380   49.6850  164.1460 H   0  0  0  0  0  0  0  0  0  0  0  0
   -3.9640   50.9270  164.5790 H   0  0  0  0  0  0  0  0  0  0  0  0
   -3.8150   50.6660  166.3510 H   0  0  0  0  0  0  0  0  0  0  0  0
   -4.5560   48.6470  164.1640 H   0  0  0  0  0  0  0  0  0  0  0  0
   -5.0980   48.7020  165.8770 H   0  0  0  0  0  0  0  0  0  0  0  0
   -2.7500   47.2890  164.7020 H   0  0  0  0  0  0  0  0  0  0  0  0
   -3.7180   47.2470  167.4000 H   0  0  0  0  0  0  0  0  0  0  0  0
   -3.0510   49.6630  167.7540 H   0  0  0  0  0  0  0  0  0  0  0  0
   -1.2830   49.5370  168.0510 H   0  0  0  0  0  0  0  0  0  0  0  0
   -2.3220   48.0780  168.1790 H   0  0  0  0  0  0  0  0  0  0  0  0
  1  2  2  0  0  0  0
  1 11  1  0  0  0  0
  1 21  1  0  0  0  0
  2  3  1  0  0  0  0
  2 22  1  0  0  0  0
  3  4  1  0  0  0  0
  3  5  2  0  0  0  0
  4 23  1  0  0  0  0
  5  6  1  0  0  0  0
  5 24  1  0  0  0  0
  6  7  1  0  0  0  0
  6 11  2  0  0  0  0
  7  8  1  0  0  0  0
  7 25  1  0  0  0  0
  7 26  1  0  0  0  0
  8  9  1  0  0  0  0
  8 27  1  0  0  0  0
  8 28  1  0  0  0  0
  9 10  1  0  0  0  0
  9 15  1  0  0  0  0
  9 29  1  0  0  0  0
 10 11  1  0  0  0  0
 10 12  1  0  0  0  0
 10 30  1  0  0  0  0
 12 13  1  0  0  0  0
 12 31  1  0  0  0  0
 12 32  1  0  0  0  0
 13 14  1  0  0  0  0
 13 33  1  0  0  0  0
 13 34  1  0  0  0  0
 14 15  1  0  0  0  0
 14 18  1  0  0  0  0
 14 20  1  0  0  0  0
 15 16  1  0  0  0  0
 15 35  1  0  0  0  0
 16 17  1  0  0  0  0
 16 36  1  0  0  0  0
 16 37  1  0  0  0  0
 17 18  1  0  0  0  0
 17 38  1  0  0  0  0
 17 39  1  0  0  0  0
 18 19  1  0  0  0  0
 18 40  1  0  0  0  0
 19 41  1  0  0  0  0
 20 42  1  0  0  0  0
 20 43  1  0  0  0  0
 20 44  1  0  0  0  0
M  END
$$$$
1qkt_666
  -OEChem-01202217033D

 44 47  0     1  0  0  0  0  0999 V2000
    2.2120   50.3310  165.9850 C   0  0  0  0  0  0  0  0  0  0  0  0
    3.3940   51.0450  166.2170 C   0  0  0  0  0  0  0  0  0  0  0  0
    3.7610   52.1070  165.3570 C   0  0  0  0  0  0  0  0  0  0  0  0
    4.9300   52.7960  165.6090 O   0  0  0  0  0  0  0  0  0  0  0  0
    2.9420   52.4580  164.2520 C   0  0  0  0  0  0  0  0  0  0  0  0
    1.7250   51.7280  163.9950 C   0  0  0  0  0  0  0  0  0  0  0  0
    0.8490   52.1030  162.7860 C   0  0  0  0  0  0  0  0  0  0  0  0
   -0.4190   51.2250  162.5830 C   0  0  0  0  0  0  0  0  0  0  0  0
   -1.0220   50.7060  163.8910 C   0  0  2  0  0  0  0  0  0  0  0  0
    0.0570   49.8520  164.6470 C   0  0  1  0  0  0  0  0  0  0  0  0
    1.3520   50.6450  164.8890 C   0  0  0  0  0  0  0  0  0  0  0  0
   -0.5710   49.3270  165.9540 C   0  0  0  0  0  0  0  0  0  0  0  0
   -1.8660   48.5230  165.7760 C   0  0  0  0  0  0  0  0  0  0  0  0
   -2.9340   49.3060  164.9990 C   0  0  1  0  0  0  0  0  0  0  0  0
   -2.2990   49.7970  163.6550 C   0  0  1  0  0  0  0  0  0  0  0  0
   -3.5380   50.3160  162.9300 C   0  0  0  0  0  0  0  0  0  0  0  0
   -4.5920   49.1750  163.1570 C   0  0  0  0  0  0  0  0  0  0  0  0
   -4.1190   48.4550  164.4550 C   0  0  2  0  0  0  0  0  0  0  0  0
   -5.2560   48.2920  165.3700 O   0  0  0  0  0  0  0  0  0  0  0  0
   -3.5140   50.4710  165.8830 C   0  0  0  0  0  0  0  0  0  0  0  0
    1.9440   49.5200  166.6540 H   0  0  0  0  0  0  0  0  0  0  0  0
    4.0280   50.7850  167.0570 H   0  0  0  0  0  0  0  0  0  0  0  0
    5.3510   52.4330  166.3790 H   0  0  0  0  0  0  0  0  0  0  0  0
    3.2320   53.2740  163.6000 H   0  0  0  0  0  0  0  0  0  0  0  0
    1.4670   52.0190  161.8810 H   0  0  0  0  0  0  0  0  0  0  0  0
    0.5230   53.1450  162.9130 H   0  0  0  0  0  0  0  0  0  0  0  0
   -0.1480   50.3610  161.9580 H   0  0  0  0  0  0  0  0  0  0  0  0
   -1.1790   51.8280  162.0650 H   0  0  0  0  0  0  0  0  0  0  0  0
   -1.3100   51.5670  164.5120 H   0  0  0  0  0  0  0  0  0  0  0  0
    0.3140   48.9860  164.0190 H   0  0  0  0  0  0  0  0  0  0  0  0
   -0.7910   50.1910  166.5980 H   0  0  0  0  0  0  0  0  0  0  0  0
    0.1670   48.6790  166.4500 H   0  0  0  0  0  0  0  0  0  0  0  0
   -2.2660   48.2710  166.7690 H   0  0  0  0  0  0  0  0  0  0  0  0
   -1.6370   47.5990  165.2270 H   0  0  0  0  0  0  0  0  0  0  0  0
   -1.9310   48.9290  163.0890 H   0  0  0  0  0  0  0  0  0  0  0  0
   -3.3370   50.4600  161.8580 H   0  0  0  0  0  0  0  0  0  0  0  0
   -3.8840   51.2650  163.3690 H   0  0  0  0  0  0  0  0  0  0  0  0
   -4.5990   48.4770  162.3060 H   0  0  0  0  0  0  0  0  0  0  0  0
   -5.5990   49.5970  163.2930 H   0  0  0  0  0  0  0  0  0  0  0  0
   -3.7420   47.4520  164.2060 H   0  0  0  0  0  0  0  0  0  0  0  0
   -5.4670   49.1300  165.7640 H   0  0  0  0  0  0  0  0  0  0  0  0
   -4.0680   51.1750  165.2440 H   0  0  0  0  0  0  0  0  0  0  0  0
   -2.6880   50.9990  166.3810 H   0  0  0  0  0  0  0  0  0  0  0  0
   -4.1920   50.0530  166.6410 H   0  0  0  0  0  0  0  0  0  0  0  0
  1  2  2  0  0  0  0
  1 11  1  0  0  0  0
  1 21  1  0  0  0  0
  2  3  1  0  0  0  0
  2 22  1  0  0  0  0
  3  4  1  0  0  0  0
  3  5  2  0  0  0  0
  4 23  1  0  0  0  0
  5  6  1  0  0  0  0
  5 24  1  0  0  0  0
  6  7  1  0  0  0  0
  6 11  2  0  0  0  0
  7  8  1  0  0  0  0
  7 25  1  0  0  0  0
  7 26  1  0  0  0  0
  8  9  1  0  0  0  0
  8 27  1  0  0  0  0
  8 28  1  0  0  0  0
  9 10  1  0  0  0  0
  9 15  1  0  0  0  0
  9 29  1  0  0  0  0
 10 11  1  0  0  0  0
 10 12  1  0  0  0  0
 10 30  1  0  0  0  0
 12 13  1  0  0  0  0
 12 31  1  0  0  0  0
 12 32  1  0  0  0  0
 13 14  1  0  0  0  0
 13 33  1  0  0  0  0
 13 34  1  0  0  0  0
 14 15  1  0  0  0  0
 14 18  1  0  0  0  0
 14 20  1  0  0  0  0
 15 16  1  0  0  0  0
 15 35  1  0  0  0  0
 16 17  1  0  0  0  0
 16 36  1  0  0  0  0
 16 37  1  0  0  0  0
 17 18  1  0  0  0  0
 17 38  1  0  0  0  0
 17 39  1  0  0  0  0
 18 19  1  0  0  0  0
 18 40  1  0  0  0  0
 19 41  1  0  0  0  0
 20 42  1  0  0  0  0
 20 43  1  0  0  0  0
 20 44  1  0  0  0  0
M  END
$$$$
1qkt_674
  -OEChem-01202217033D

 44 47  0     1  0  0  0  0  0999 V2000
    1.0900   52.1200  163.9300 C   0  0  0  0  0  0  0  0  0  0  0  0
    2.4330   52.5160  163.9150 C   0  0  0  0  0  0  0  0  0  0  0  0
    3.2720   52.2200  165.0150 C   0  0  0  0  0  0  0  0  0  0  0  0
    4.5930   52.6200  164.9750 O   0  0  0  0  0  0  0  0  0  0  0  0
    2.7660   51.5230  166.1440 C   0  0  0  0  0  0  0  0  0  0  0  0
    1.3830   51.1130  166.1780 C   0  0  0  0  0  0  0  0  0  0  0  0
    0.8350   50.3720  167.4110 C   0  0  0  0  0  0  0  0  0  0  0  0
   -0.6770   50.0120  167.3560 C   0  0  0  0  0  0  0  0  0  0  0  0
   -1.1880   49.7220  165.9420 C   0  0  2  0  0  0  0  0  0  0  0  0
   -0.9450   50.9860  165.0420 C   0  0  1  0  0  0  0  0  0  0  0  0
    0.5320   51.4150  165.0400 C   0  0  0  0  0  0  0  0  0  0  0  0
   -1.4760   50.6810  163.6260 C   0  0  0  0  0  0  0  0  0  0  0  0
   -2.9480   50.2490  163.5640 C   0  0  0  0  0  0  0  0  0  0  0  0
   -3.2400   49.0430  164.4680 C   0  0  1  0  0  0  0  0  0  0  0  0
   -2.7350   49.3800  165.9110 C   0  0  1  0  0  0  0  0  0  0  0  0
   -3.3200   48.2090  166.6950 C   0  0  0  0  0  0  0  0  0  0  0  0
   -4.7970   48.1240  166.1670 C   0  0  0  0  0  0  0  0  0  0  0  0
   -4.7460   48.7740  164.7530 C   0  0  2  0  0  0  0  0  0  0  0  0
   -5.4290   47.9040  163.7870 O   0  0  0  0  0  0  0  0  0  0  0  0
   -2.5990   47.7380  163.8670 C   0  0  0  0  0  0  0  0  0  0  0  0
    0.4600   52.3540  163.0790 H   0  0  0  0  0  0  0  0  0  0  0  0
    2.8310   53.0500  163.0600 H   0  0  0  0  0  0  0  0  0  0  0  0
    4.7610   53.0690  164.1560 H   0  0  0  0  0  0  0  0  0  0  0  0
    3.4180   51.2990  166.9800 H   0  0  0  0  0  0  0  0  0  0  0  0
    1.0000   51.0100  168.2910 H   0  0  0  0  0  0  0  0  0  0  0  0
    1.4020   49.4370  167.5240 H   0  0  0  0  0  0  0  0  0  0  0  0
   -1.2510   50.8570  167.7650 H   0  0  0  0  0  0  0  0  0  0  0  0
   -0.8440   49.1190  167.9750 H   0  0  0  0  0  0  0  0  0  0  0  0
   -0.6280   48.8670  165.5340 H   0  0  0  0  0  0  0  0  0  0  0  0
   -1.5300   51.8210  165.4540 H   0  0  0  0  0  0  0  0  0  0  0  0
   -0.8650   49.8720  163.2000 H   0  0  0  0  0  0  0  0  0  0  0  0
   -1.3610   51.5880  163.0160 H   0  0  0  0  0  0  0  0  0  0  0  0
   -3.1950   49.9810  162.5270 H   0  0  0  0  0  0  0  0  0  0  0  0
   -3.5780   51.0920  163.8850 H   0  0  0  0  0  0  0  0  0  0  0  0
   -3.2370   50.2930  166.2660 H   0  0  0  0  0  0  0  0  0  0  0  0
   -3.2990   48.4090  167.7770 H   0  0  0  0  0  0  0  0  0  0  0  0
   -2.7720   47.2780  166.4840 H   0  0  0  0  0  0  0  0  0  0  0  0
   -5.4780   48.6820  166.8270 H   0  0  0  0  0  0  0  0  0  0  0  0
   -5.1260   47.0760  166.1010 H   0  0  0  0  0  0  0  0  0  0  0  0
   -5.2750   49.7380  164.7690 H   0  0  0  0  0  0  0  0  0  0  0  0
   -4.8810   47.1520  163.5960 H   0  0  0  0  0  0  0  0  0  0  0  0
   -2.5810   46.9510  164.6350 H   0  0  0  0  0  0  0  0  0  0  0  0
   -1.5720   47.9520  163.5380 H   0  0  0  0  0  0  0  0  0  0  0  0
   -3.1960   47.3980  163.0080 H   0  0  0  0  0  0  0  0  0  0  0  0
  1  2  2  0  0  0  0
  1 11  1  0  0  0  0
  1 21  1  0  0  0  0
  2  3  1  0  0  0  0
  2 22  1  0  0  0  0
  3  4  1  0  0  0  0
  3  5  2  0  0  0  0
  4 23  1  0  0  0  0
  5  6  1  0  0  0  0
  5 24  1  0  0  0  0
  6  7  1  0  0  0  0
  6 11  2  0  0  0  0
  7  8  1  0  0  0  0
  7 25  1  0  0  0  0
  7 26  1  0  0  0  0
  8  9  1  0  0  0  0
  8 27  1  0  0  0  0
  8 28  1  0  0  0  0
  9 10  1  0  0  0  0
  9 15  1  0  0  0  0
  9 29  1  0  0  0  0
 10 11  1  0  0  0  0
 10 12  1  0  0  0  0
 10 30  1  0  0  0  0
 12 13  1  0  0  0  0
 12 31  1  0  0  0  0
 12 32  1  0  0  0  0
 13 14  1  0  0  0  0
 13 33  1  0  0  0  0
 13 34  1  0  0  0  0
 14 15  1  0  0  0  0
 14 18  1  0  0  0  0
 14 20  1  0  0  0  0
 15 16  1  0  0  0  0
 15 35  1  0  0  0  0
 16 17  1  0  0  0  0
 16 36  1  0  0  0  0
 16 37  1  0  0  0  0
 17 18  1  0  0  0  0
 17 38  1  0  0  0  0
 17 39  1  0  0  0  0
 18 19  1  0  0  0  0
 18 40  1  0  0  0  0
 19 41  1  0  0  0  0
 20 42  1  0  0  0  0
 20 43  1  0  0  0  0
 20 44  1  0  0  0  0
M  END
$$$$
1qkt_698
  -OEChem-01202217033D

 44 47  0     1  0  0  0  0  0999 V2000
    1.9560   53.4200  165.5640 C   0  0  0  0  0  0  0  0  0  0  0  0
    3.2610   53.6700  166.0050 C   0  0  0  0  0  0  0  0  0  0  0  0
    3.9680   52.6800  166.7280 C   0  0  0  0  0  0  0  0  0  0  0  0
    5.2540   52.9520  167.1500 O   0  0  0  0  0  0  0  0  0  0  0  0
    3.3650   51.4280  167.0170 C   0  0  0  0  0  0  0  0  0  0  0  0
    2.0200   51.1550  166.5750 C   0  0  0  0  0  0  0  0  0  0  0  0
    1.3660   49.8010  166.9040 C   0  0  0  0  0  0  0  0  0  0  0  0
   -0.1000   49.6310  166.4130 C   0  0  0  0  0  0  0  0  0  0  0  0
   -0.4040   50.3830  165.1140 C   0  0  2  0  0  0  0  0  0  0  0  0
   -0.1280   51.9140  165.3350 C   0  0  1  0  0  0  0  0  0  0  0  0
    1.3050   52.1750  165.8260 C   0  0  0  0  0  0  0  0  0  0  0  0
   -0.4510   52.6570  164.0220 C   0  0  0  0  0  0  0  0  0  0  0  0
   -1.8710   52.4370  163.4830 C   0  0  0  0  0  0  0  0  0  0  0  0
   -2.1990   50.9490  163.2970 C   0  0  1  0  0  0  0  0  0  0  0  0
   -1.9080   50.2120  164.6480 C   0  0  1  0  0  0  0  0  0  0  0  0
   -2.5130   48.8410  164.3570 C   0  0  0  0  0  0  0  0  0  0  0  0
   -3.9000   49.1890  163.7080 C   0  0  0  0  0  0  0  0  0  0  0  0
   -3.7090   50.6170  163.1160 C   0  0  2  0  0  0  0  0  0  0  0  0
   -4.2030   50.6460  161.7330 O   0  0  0  0  0  0  0  0  0  0  0  0
   -1.4020   50.3590  162.0750 C   0  0  0  0  0  0  0  0  0  0  0  0
    1.4280   54.1880  165.0110 H   0  0  0  0  0  0  0  0  0  0  0  0
    3.7310   54.6230  165.7930 H   0  0  0  0  0  0  0  0  0  0  0  0
    5.4970   53.8280  166.8750 H   0  0  0  0  0  0  0  0  0  0  0  0
    3.9170   50.6760  167.5690 H   0  0  0  0  0  0  0  0  0  0  0  0
    1.3730   49.6780  167.9970 H   0  0  0  0  0  0  0  0  0  0  0  0
    1.9720   49.0100  166.4420 H   0  0  0  0  0  0  0  0  0  0  0  0
   -0.7750   50.0050  167.1970 H   0  0  0  0  0  0  0  0  0  0  0  0
   -0.2880   48.5600  166.2460 H   0  0  0  0  0  0  0  0  0  0  0  0
    0.2590   50.0010  164.3230 H   0  0  0  0  0  0  0  0  0  0  0  0
   -0.8140   52.2800  166.1120 H   0  0  0  0  0  0  0  0  0  0  0  0
    0.2610   52.3190  163.2550 H   0  0  0  0  0  0  0  0  0  0  0  0
   -0.3160   53.7340  164.1990 H   0  0  0  0  0  0  0  0  0  0  0  0
   -1.9640   52.9430  162.5110 H   0  0  0  0  0  0  0  0  0  0  0  0
   -2.5900   52.8710  164.1930 H   0  0  0  0  0  0  0  0  0  0  0  0
   -2.5100   50.6700  165.4470 H   0  0  0  0  0  0  0  0  0  0  0  0
   -2.6450   48.2630  165.2840 H   0  0  0  0  0  0  0  0  0  0  0  0
   -1.8830   48.2710  163.6570 H   0  0  0  0  0  0  0  0  0  0  0  0
   -4.6960   49.1870  164.4680 H   0  0  0  0  0  0  0  0  0  0  0  0
   -4.1500   48.4700  162.9140 H   0  0  0  0  0  0  0  0  0  0  0  0
   -4.2970   51.3420  163.6980 H   0  0  0  0  0  0  0  0  0  0  0  0
   -3.5880   50.1950  161.1680 H   0  0  0  0  0  0  0  0  0  0  0  0
   -1.4340   49.2600  162.1140 H   0  0  0  0  0  0  0  0  0  0  0  0
   -0.3570   50.6980  162.1210 H   0  0  0  0  0  0  0  0  0  0  0  0
   -1.8600   50.7060  161.1380 H   0  0  0  0  0  0  0  0  0  0  0  0
  1  2  2  0  0  0  0
  1 11  1  0  0  0  0
  1 21  1  0  0  0  0
  2  3  1  0  0  0  0
  2 22  1  0  0  0  0
  3  4  1  0  0  0  0
  3  5  2  0  0  0  0
  4 23  1  0  0  0  0
  5  6  1  0  0  0  0
  5 24  1  0  0  0  0
  6  7  1  0  0  0  0
  6 11  2  0  0  0  0
  7  8  1  0  0  0  0
  7 25  1  0  0  0  0
  7 26  1  0  0  0  0
  8  9  1  0  0  0  0
  8 27  1  0  0  0  0
  8 28  1  0  0  0  0
  9 10  1  0  0  0  0
  9 15  1  0  0  0  0
  9 29  1  0  0  0  0
 10 11  1  0  0  0  0
 10 12  1  0  0  0  0
 10 30  1  0  0  0  0
 12 13  1  0  0  0  0
 12 31  1  0  0  0  0
 12 32  1  0  0  0  0
 13 14  1  0  0  0  0
 13 33  1  0  0  0  0
 13 34  1  0  0  0  0
 14 15  1  0  0  0  0
 14 18  1  0  0  0  0
 14 20  1  0  0  0  0
 15 16  1  0  0  0  0
 15 35  1  0  0  0  0
 16 17  1  0  0  0  0
 16 36  1  0  0  0  0
 16 37  1  0  0  0  0
 17 18  1  0  0  0  0
 17 38  1  0  0  0  0
 17 39  1  0  0  0  0
 18 19  1  0  0  0  0
 18 40  1  0  0  0  0
 19 41  1  0  0  0  0
 20 42  1  0  0  0  0
 20 43  1  0  0  0  0
 20 44  1  0  0  0  0
M  END
$$$$
1qkt_714
  -OEChem-01202217033D

 44 47  0     1  0  0  0  0  0999 V2000
    0.7621   53.0369  165.1769 C   0  0  0  0  0  0  0  0  0  0  0  0
    2.1640   53.1426  165.1396 C   0  0  0  0  0  0  0  0  0  0  0  0
    2.9599   52.0037  165.3416 C   0  0  0  0  0  0  0  0  0  0  0  0
    4.3132   52.0777  165.2854 O   0  0  0  0  0  0  0  0  0  0  0  0
    2.3463   50.7745  165.6264 C   0  0  0  0  0  0  0  0  0  0  0  0
    0.9370   50.6580  165.6794 C   0  0  0  0  0  0  0  0  0  0  0  0
    0.3784   49.3175  166.0132 C   0  0  0  0  0  0  0  0  0  0  0  0
   -1.1510   49.2813  166.2498 C   0  0  0  0  0  0  0  0  0  0  0  0
   -1.8787   50.1945  165.2286 C   0  0  2  0  0  0  0  0  0  0  0  0
   -1.3905   51.6833  165.4147 C   0  0  1  0  0  0  0  0  0  0  0  0
    0.1154   51.7904  165.3901 C   0  0  0  0  0  0  0  0  0  0  0  0
   -2.1576   52.6339  164.4238 C   0  0  0  0  0  0  0  0  0  0  0  0
   -3.7087   52.4599  164.4397 C   0  0  0  0  0  0  0  0  0  0  0  0
   -4.1541   50.9728  164.2479 C   0  0  1  0  0  0  0  0  0  0  0  0
   -3.4340   50.1287  165.3486 C   0  0  1  0  0  0  0  0  0  0  0  0
   -4.1816   48.7766  165.3220 C   0  0  0  0  0  0  0  0  0  0  0  0
   -5.6501   49.1655  165.0061 C   0  0  0  0  0  0  0  0  0  0  0  0
   -5.6408   50.6714  164.6219 C   0  0  2  0  0  0  0  0  0  0  0  0
   -6.5973   50.9715  163.6028 O   0  0  0  0  0  0  0  0  0  0  0  0
   -3.8861   50.5290  162.7581 C   0  0  0  0  0  0  0  0  0  0  0  0
    0.2269   53.8934  165.0410 H   0  0  0  0  0  0  0  0  0  0  0  0
    2.6012   54.0512  164.9681 H   0  0  0  0  0  0  0  0  0  0  0  0
    4.5140   52.7103  164.5652 H   0  0  0  0  0  0  0  0  0  0  0  0
    2.9376   49.9559  165.7969 H   0  0  0  0  0  0  0  0  0  0  0  0
    0.8636   48.9350  166.9167 H   0  0  0  0  0  0  0  0  0  0  0  0
    0.6248   48.6397  165.1903 H   0  0  0  0  0  0  0  0  0  0  0  0
   -1.3726   49.6131  167.2685 H   0  0  0  0  0  0  0  0  0  0  0  0
   -1.4931   48.2476  166.1504 H   0  0  0  0  0  0  0  0  0  0  0  0
   -1.5901   49.8454  164.2348 H   0  0  0  0  0  0  0  0  0  0  0  0
   -1.6781   52.0057  166.4213 H   0  0  0  0  0  0  0  0  0  0  0  0
   -1.7771   52.4839  163.4110 H   0  0  0  0  0  0  0  0  0  0  0  0
   -1.9697   53.6770  164.6863 H   0  0  0  0  0  0  0  0  0  0  0  0
   -4.1520   53.0861  163.6603 H   0  0  0  0  0  0  0  0  0  0  0  0
   -4.0794   52.8349  165.3986 H   0  0  0  0  0  0  0  0  0  0  0  0
   -3.6654   50.5584  166.3348 H   0  0  0  0  0  0  0  0  0  0  0  0
   -4.1067   48.2601  166.2830 H   0  0  0  0  0  0  0  0  0  0  0  0
   -3.7724   48.1257  164.5442 H   0  0  0  0  0  0  0  0  0  0  0  0
   -6.2934   48.9964  165.8748 H   0  0  0  0  0  0  0  0  0  0  0  0
   -6.0247   48.5603  164.1779 H   0  0  0  0  0  0  0  0  0  0  0  0
   -5.9280   51.2541  165.5045 H   0  0  0  0  0  0  0  0  0  0  0  0
   -6.5272   51.9388  163.4590 H   0  0  0  0  0  0  0  0  0  0  0  0
   -2.8380   50.6165  162.4786 H   0  0  0  0  0  0  0  0  0  0  0  0
   -4.4570   51.1563  162.0697 H   0  0  0  0  0  0  0  0  0  0  0  0
   -4.1823   49.4944  162.5797 H   0  0  0  0  0  0  0  0  0  0  0  0
  1  2  2  0  0  0  0
  1 11  1  0  0  0  0
  2  3  1  0  0  0  0
  3  4  1  0  0  0  0
  3  5  2  0  0  0  0
  5  6  1  0  0  0  0
  6  7  1  0  0  0  0
  6 11  2  0  0  0  0
  7  8  1  0  0  0  0
  8  9  1  0  0  0  0
  9 10  1  0  0  0  0
  9 15  1  0  0  0  0
 10 11  1  0  0  0  0
 10 12  1  0  0  0  0
 12 13  1  0  0  0  0
 13 14  1  0  0  0  0
 14 15  1  0  0  0  0
 14 18  1  0  0  0  0
 14 20  1  0  0  0  0
 15 16  1  0  0  0  0
 16 17  1  0  0  0  0
 17 18  1  0  0  0  0
 18 19  1  0  0  0  0
  1 21  1  0  0  0  0
  2 22  1  0  0  0  0
  4 23  1  0  0  0  0
  5 24  1  0  0  0  0
  7 25  1  0  0  0  0
  7 26  1  0  0  0  0
  8 27  1  0  0  0  0
  8 28  1  0  0  0  0
  9 29  1  0  0  0  0
 10 30  1  0  0  0  0
 12 31  1  0  0  0  0
 12 32  1  0  0  0  0
 13 33  1  0  0  0  0
 13 34  1  0  0  0  0
 15 35  1  0  0  0  0
 16 36  1  0  0  0  0
 16 37  1  0  0  0  0
 17 38  1  0  0  0  0
 17 39  1  0  0  0  0
 18 40  1  0  0  0  0
 19 41  1  0  0  0  0
 20 42  1  0  0  0  0
 20 43  1  0  0  0  0
 20 44  1  0  0  0  0
M  END
$$$$
1qkt_718
  -OEChem-01202217033D

 44 47  0     1  0  0  0  0  0999 V2000
    0.4752   52.9355  165.2230 C   0  0  0  0  0  0  0  0  0  0  0  0
    1.8763   53.0509  165.1428 C   0  0  0  0  0  0  0  0  0  0  0  0
    2.6882   51.9175  165.2830 C   0  0  0  0  0  0  0  0  0  0  0  0
    4.0430   52.0202  165.2673 O   0  0  0  0  0  0  0  0  0  0  0  0
    2.0869   50.6678  165.5035 C   0  0  0  0  0  0  0  0  0  0  0  0
    0.6790   50.5415  165.6092 C   0  0  0  0  0  0  0  0  0  0  0  0
    0.1329   49.1859  165.9201 C   0  0  0  0  0  0  0  0  0  0  0  0
   -1.3767   49.1416  166.2691 C   0  0  0  0  0  0  0  0  0  0  0  0
   -2.1703   50.0984  165.3402 C   0  0  2  0  0  0  0  0  0  0  0  0
   -1.6605   51.5741  165.5639 C   0  0  1  0  0  0  0  0  0  0  0  0
   -0.1598   51.6831  165.4251 C   0  0  0  0  0  0  0  0  0  0  0  0
   -2.5030   52.5840  164.7030 C   0  0  0  0  0  0  0  0  0  0  0  0
   -4.0491   52.4059  164.8224 C   0  0  0  0  0  0  0  0  0  0  0  0
   -4.5055   50.9333  164.5668 C   0  0  1  0  0  0  0  0  0  0  0  0
   -3.7137   50.0318  165.5637 C   0  0  1  0  0  0  0  0  0  0  0  0
   -4.4563   48.6816  165.5054 C   0  0  0  0  0  0  0  0  0  0  0  0
   -5.9433   49.0818  165.3283 C   0  0  0  0  0  0  0  0  0  0  0  0
   -5.9674   50.6004  164.9981 C   0  0  2  0  0  0  0  0  0  0  0  0
   -6.9569   50.9339  164.0215 O   0  0  0  0  0  0  0  0  0  0  0  0
   -4.3324   50.5829  163.0401 C   0  0  0  0  0  0  0  0  0  0  0  0
   -0.0643   53.7945  165.1463 H   0  0  0  0  0  0  0  0  0  0  0  0
    2.3003   53.9733  164.9930 H   0  0  0  0  0  0  0  0  0  0  0  0
    4.2514   52.9088  164.8939 H   0  0  0  0  0  0  0  0  0  0  0  0
    2.6877   49.8436  165.6138 H   0  0  0  0  0  0  0  0  0  0  0  0
    0.6770   48.7563  166.7667 H   0  0  0  0  0  0  0  0  0  0  0  0
    0.3069   48.5455  165.0509 H   0  0  0  0  0  0  0  0  0  0  0  0
   -1.5275   49.4294  167.3134 H   0  0  0  0  0  0  0  0  0  0  0  0
   -1.7339   48.1129  166.1523 H   0  0  0  0  0  0  0  0  0  0  0  0
   -1.9531   49.7928  164.3153 H   0  0  0  0  0  0  0  0  0  0  0  0
   -1.8646   51.8365  166.6098 H   0  0  0  0  0  0  0  0  0  0  0  0
   -2.2049   52.5000  163.6575 H   0  0  0  0  0  0  0  0  0  0  0  0
   -2.2921   53.6072  165.0160 H   0  0  0  0  0  0  0  0  0  0  0  0
   -4.5479   53.0797  164.1206 H   0  0  0  0  0  0  0  0  0  0  0  0
   -4.3515   52.7183  165.8268 H   0  0  0  0  0  0  0  0  0  0  0  0
   -3.8794   50.3992  166.5883 H   0  0  0  0  0  0  0  0  0  0  0  0
   -4.3090   48.0954  166.4164 H   0  0  0  0  0  0  0  0  0  0  0  0
   -4.1138   48.0881  164.6558 H   0  0  0  0  0  0  0  0  0  0  0  0
   -6.5146   48.8794  166.2374 H   0  0  0  0  0  0  0  0  0  0  0  0
   -6.3841   48.5085  164.5108 H   0  0  0  0  0  0  0  0  0  0  0  0
   -6.2323   51.1574  165.9004 H   0  0  0  0  0  0  0  0  0  0  0  0
   -6.7376   51.8484  163.7365 H   0  0  0  0  0  0  0  0  0  0  0  0
   -3.3044   50.6667  162.6985 H   0  0  0  0  0  0  0  0  0  0  0  0
   -4.9257   51.2613  162.4273 H   0  0  0  0  0  0  0  0  0  0  0  0
   -4.6648   49.5713  162.8130 H   0  0  0  0  0  0  0  0  0  0  0  0
  1  2  2  0  0  0  0
  1 11  1  0  0  0  0
  2  3  1  0  0  0  0
  3  4  1  0  0  0  0
  3  5  2  0  0  0  0
  5  6  1  0  0  0  0
  6  7  1  0  0  0  0
  6 11  2  0  0  0  0
  7  8  1  0  0  0  0
  8  9  1  0  0  0  0
  9 10  1  0  0  0  0
  9 15  1  0  0  0  0
 10 11  1  0  0  0  0
 10 12  1  0  0  0  0
 12 13  1  0  0  0  0
 13 14  1  0  0  0  0
 14 15  1  0  0  0  0
 14 18  1  0  0  0  0
 14 20  1  0  0  0  0
 15 16  1  0  0  0  0
 16 17  1  0  0  0  0
 17 18  1  0  0  0  0
 18 19  1  0  0  0  0
  1 21  1  0  0  0  0
  2 22  1  0  0  0  0
  4 23  1  0  0  0  0
  5 24  1  0  0  0  0
  7 25  1  0  0  0  0
  7 26  1  0  0  0  0
  8 27  1  0  0  0  0
  8 28  1  0  0  0  0
  9 29  1  0  0  0  0
 10 30  1  0  0  0  0
 12 31  1  0  0  0  0
 12 32  1  0  0  0  0
 13 33  1  0  0  0  0
 13 34  1  0  0  0  0
 15 35  1  0  0  0  0
 16 36  1  0  0  0  0
 16 37  1  0  0  0  0
 17 38  1  0  0  0  0
 17 39  1  0  0  0  0
 18 40  1  0  0  0  0
 19 41  1  0  0  0  0
 20 42  1  0  0  0  0
 20 43  1  0  0  0  0
 20 44  1  0  0  0  0
M  END
$$$$
1qkt_728
  -OEChem-01202217033D

 44 47  0     1  0  0  0  0  0999 V2000
    0.6792   53.4458  165.2663 C   0  0  0  0  0  0  0  0  0  0  0  0
    2.0639   53.6802  165.2991 C   0  0  0  0  0  0  0  0  0  0  0  0
    2.9548   52.6126  165.4991 C   0  0  0  0  0  0  0  0  0  0  0  0
    4.2952   52.8170  165.5849 O   0  0  0  0  0  0  0  0  0  0  0  0
    2.4466   51.3147  165.6673 C   0  0  0  0  0  0  0  0  0  0  0  0
    1.0543   51.0669  165.6485 C   0  0  0  0  0  0  0  0  0  0  0  0
    0.6067   49.6675  165.9015 C   0  0  0  0  0  0  0  0  0  0  0  0
   -0.9194   49.4888  166.0911 C   0  0  0  0  0  0  0  0  0  0  0  0
   -1.6948   50.3858  165.0905 C   0  0  2  0  0  0  0  0  0  0  0  0
   -1.3472   51.8997  165.3634 C   0  0  1  0  0  0  0  0  0  0  0  0
    0.1429   52.1371  165.3915 C   0  0  0  0  0  0  0  0  0  0  0  0
   -2.1654   52.8280  164.3922 C   0  0  0  0  0  0  0  0  0  0  0  0
   -3.6945   52.5210  164.3458 C   0  0  0  0  0  0  0  0  0  0  0  0
   -3.9984   51.0120  164.0723 C   0  0  1  0  0  0  0  0  0  0  0  0
   -3.2402   50.1806  165.1567 C   0  0  1  0  0  0  0  0  0  0  0  0
   -3.8610   48.7712  165.0451 C   0  0  0  0  0  0  0  0  0  0  0  0
   -5.3458   49.0443  164.6881 C   0  0  0  0  0  0  0  0  0  0  0  0
   -5.4608   50.5643  164.3868 C   0  0  2  0  0  0  0  0  0  0  0  0
   -6.4174   50.8391  163.3622 O   0  0  0  0  0  0  0  0  0  0  0  0
   -3.6481   50.6671  162.5730 C   0  0  0  0  0  0  0  0  0  0  0  0
    0.0724   54.2561  165.1541 H   0  0  0  0  0  0  0  0  0  0  0  0
    2.4170   54.6334  165.1873 H   0  0  0  0  0  0  0  0  0  0  0  0
    4.4206   53.7890  165.6077 H   0  0  0  0  0  0  0  0  0  0  0  0
    3.1033   50.5459  165.8254 H   0  0  0  0  0  0  0  0  0  0  0  0
    1.0942   49.2871  166.8028 H   0  0  0  0  0  0  0  0  0  0  0  0
    0.9348   49.0471  165.0621 H   0  0  0  0  0  0  0  0  0  0  0  0
   -1.1963   49.7518  167.1171 H   0  0  0  0  0  0  0  0  0  0  0  0
   -1.1694   48.4351  165.9351 H   0  0  0  0  0  0  0  0  0  0  0  0
   -1.3471   50.1135  164.0913 H   0  0  0  0  0  0  0  0  0  0  0  0
   -1.6915   52.1458  166.3744 H   0  0  0  0  0  0  0  0  0  0  0  0
   -1.7412   52.7617  163.3884 H   0  0  0  0  0  0  0  0  0  0  0  0
   -2.0781   53.8695  164.7072 H   0  0  0  0  0  0  0  0  0  0  0  0
   -4.1657   53.1431  163.5800 H   0  0  0  0  0  0  0  0  0  0  0  0
   -4.1258   52.8163  165.3072 H   0  0  0  0  0  0  0  0  0  0  0  0
   -3.5362   50.5405  166.1537 H   0  0  0  0  0  0  0  0  0  0  0  0
   -3.7745   48.2195  165.9852 H   0  0  0  0  0  0  0  0  0  0  0  0
   -3.3673   48.1969  164.2569 H   0  0  0  0  0  0  0  0  0  0  0  0
   -6.0049   48.7679  165.5171 H   0  0  0  0  0  0  0  0  0  0  0  0
   -5.6284   48.4576  163.8110 H   0  0  0  0  0  0  0  0  0  0  0  0
   -5.8179   51.0675  165.2920 H   0  0  0  0  0  0  0  0  0  0  0  0
   -6.4518   51.8164  163.2937 H   0  0  0  0  0  0  0  0  0  0  0  0
   -2.6038   50.8625  162.3335 H   0  0  0  0  0  0  0  0  0  0  0  0
   -4.2549   51.2732  161.8957 H   0  0  0  0  0  0  0  0  0  0  0  0
   -3.8415   49.6198  162.3377 H   0  0  0  0  0  0  0  0  0  0  0  0
  1  2  2  0  0  0  0
  1 11  1  0  0  0  0
  2  3  1  0  0  0  0
  3  4  1  0  0  0  0
  3  5  2  0  0  0  0
  5  6  1  0  0  0  0
  6  7  1  0  0  0  0
  6 11  2  0  0  0  0
  7  8  1  0  0  0  0
  8  9  1  0  0  0  0
  9 10  1  0  0  0  0
  9 15  1  0  0  0  0
 10 11  1  0  0  0  0
 10 12  1  0  0  0  0
 12 13  1  0  0  0  0
 13 14  1  0  0  0  0
 14 15  1  0  0  0  0
 14 18  1  0  0  0  0
 14 20  1  0  0  0  0
 15 16  1  0  0  0  0
 16 17  1  0  0  0  0
 17 18  1  0  0  0  0
 18 19  1  0  0  0  0
  1 21  1  0  0  0  0
  2 22  1  0  0  0  0
  4 23  1  0  0  0  0
  5 24  1  0  0  0  0
  7 25  1  0  0  0  0
  7 26  1  0  0  0  0
  8 27  1  0  0  0  0
  8 28  1  0  0  0  0
  9 29  1  0  0  0  0
 10 30  1  0  0  0  0
 12 31  1  0  0  0  0
 12 32  1  0  0  0  0
 13 33  1  0  0  0  0
 13 34  1  0  0  0  0
 15 35  1  0  0  0  0
 16 36  1  0  0  0  0
 16 37  1  0  0  0  0
 17 38  1  0  0  0  0
 17 39  1  0  0  0  0
 18 40  1  0  0  0  0
 19 41  1  0  0  0  0
 20 42  1  0  0  0  0
 20 43  1  0  0  0  0
 20 44  1  0  0  0  0
M  END
$$$$
1qkt_734
  -OEChem-01202217033D

 44 47  0     1  0  0  0  0  0999 V2000
   -5.2938   53.9607  162.1537 C   0  0  0  0  0  0  0  0  0  0  0  0
   -6.4770   54.6595  161.8558 C   0  0  0  0  0  0  0  0  0  0  0  0
   -7.7058   54.2061  162.3615 C   0  0  0  0  0  0  0  0  0  0  0  0
   -8.8580   54.8640  162.0816 O   0  0  0  0  0  0  0  0  0  0  0  0
   -7.7453   53.0442  163.1448 C   0  0  0  0  0  0  0  0  0  0  0  0
   -6.5649   52.3150  163.4244 C   0  0  0  0  0  0  0  0  0  0  0  0
   -6.7134   51.0597  164.2146 C   0  0  0  0  0  0  0  0  0  0  0  0
   -5.4346   50.1956  164.3287 C   0  0  0  0  0  0  0  0  0  0  0  0
   -4.1884   51.0994  164.5266 C   0  0  2  0  0  0  0  0  0  0  0  0
   -4.0267   52.0408  163.2699 C   0  0  1  0  0  0  0  0  0  0  0  0
   -5.2990   52.8008  162.9727 C   0  0  0  0  0  0  0  0  0  0  0  0
   -2.7229   52.9111  163.3978 C   0  0  0  0  0  0  0  0  0  0  0  0
   -1.4423   52.0969  163.7632 C   0  0  0  0  0  0  0  0  0  0  0  0
   -1.6408   51.1991  165.0279 C   0  0  1  0  0  0  0  0  0  0  0  0
   -2.8767   50.2836  164.7524 C   0  0  1  0  0  0  0  0  0  0  0  0
   -2.7909   49.2080  165.8570 C   0  0  0  0  0  0  0  0  0  0  0  0
   -1.2686   48.9827  166.0476 C   0  0  0  0  0  0  0  0  0  0  0  0
   -0.5483   50.1069  165.2517 C   0  0  2  0  0  0  0  0  0  0  0  0
    0.6345   50.5677  165.9072 O   0  0  0  0  0  0  0  0  0  0  0  0
   -1.7352   52.1108  166.3102 C   0  0  0  0  0  0  0  0  0  0  0  0
   -4.4285   54.3219  161.7537 H   0  0  0  0  0  0  0  0  0  0  0  0
   -6.4398   55.5032  161.2788 H   0  0  0  0  0  0  0  0  0  0  0  0
   -8.8538   54.9937  161.1093 H   0  0  0  0  0  0  0  0  0  0  0  0
   -8.6527   52.7182  163.4951 H   0  0  0  0  0  0  0  0  0  0  0  0
   -7.4943   50.4368  163.7681 H   0  0  0  0  0  0  0  0  0  0  0  0
   -7.0413   51.3349  165.2207 H   0  0  0  0  0  0  0  0  0  0  0  0
   -5.3173   49.5919  163.4234 H   0  0  0  0  0  0  0  0  0  0  0  0
   -5.5492   49.5118  165.1745 H   0  0  0  0  0  0  0  0  0  0  0  0
   -4.3799   51.7108  165.4121 H   0  0  0  0  0  0  0  0  0  0  0  0
   -3.8710   51.4005  162.3948 H   0  0  0  0  0  0  0  0  0  0  0  0
   -2.8854   53.6998  164.1360 H   0  0  0  0  0  0  0  0  0  0  0  0
   -2.5069   53.4024  162.4462 H   0  0  0  0  0  0  0  0  0  0  0  0
   -0.6087   52.7846  163.9233 H   0  0  0  0  0  0  0  0  0  0  0  0
   -1.1788   51.4735  162.9031 H   0  0  0  0  0  0  0  0  0  0  0  0
   -2.7122   49.7367  163.8128 H   0  0  0  0  0  0  0  0  0  0  0  0
   -3.2941   48.2840  165.5579 H   0  0  0  0  0  0  0  0  0  0  0  0
   -3.2477   49.5720  166.7799 H   0  0  0  0  0  0  0  0  0  0  0  0
   -0.9716   48.0027  165.6672 H   0  0  0  0  0  0  0  0  0  0  0  0
   -1.0128   49.0284  167.1098 H   0  0  0  0  0  0  0  0  0  0  0  0
   -0.2294   49.7023  164.2857 H   0  0  0  0  0  0  0  0  0  0  0  0
    1.2316   49.7897  165.9466 H   0  0  0  0  0  0  0  0  0  0  0  0
   -2.5762   52.7987  166.2693 H   0  0  0  0  0  0  0  0  0  0  0  0
   -0.8306   52.7136  166.4099 H   0  0  0  0  0  0  0  0  0  0  0  0
   -1.8362   51.5224  167.2225 H   0  0  0  0  0  0  0  0  0  0  0  0
  1  2  2  0  0  0  0
  1 11  1  0  0  0  0
  2  3  1  0  0  0  0
  3  4  1  0  0  0  0
  3  5  2  0  0  0  0
  5  6  1  0  0  0  0
  6  7  1  0  0  0  0
  6 11  2  0  0  0  0
  7  8  1  0  0  0  0
  8  9  1  0  0  0  0
  9 10  1  0  0  0  0
  9 15  1  0  0  0  0
 10 11  1  0  0  0  0
 10 12  1  0  0  0  0
 12 13  1  0  0  0  0
 13 14  1  0  0  0  0
 14 15  1  0  0  0  0
 14 18  1  0  0  0  0
 14 20  1  0  0  0  0
 15 16  1  0  0  0  0
 16 17  1  0  0  0  0
 17 18  1  0  0  0  0
 18 19  1  0  0  0  0
  1 21  1  0  0  0  0
  2 22  1  0  0  0  0
  4 23  1  0  0  0  0
  5 24  1  0  0  0  0
  7 25  1  0  0  0  0
  7 26  1  0  0  0  0
  8 27  1  0  0  0  0
  8 28  1  0  0  0  0
  9 29  1  0  0  0  0
 10 30  1  0  0  0  0
 12 31  1  0  0  0  0
 12 32  1  0  0  0  0
 13 33  1  0  0  0  0
 13 34  1  0  0  0  0
 15 35  1  0  0  0  0
 16 36  1  0  0  0  0
 16 37  1  0  0  0  0
 17 38  1  0  0  0  0
 17 39  1  0  0  0  0
 18 40  1  0  0  0  0
 19 41  1  0  0  0  0
 20 42  1  0  0  0  0
 20 43  1  0  0  0  0
 20 44  1  0  0  0  0
M  END
$$$$
1qkt_735
  -OEChem-01202217033D

 44 47  0     1  0  0  0  0  0999 V2000
    0.4193   50.1810  164.4192 C   0  0  0  0  0  0  0  0  0  0  0  0
    1.2588   49.2279  165.0167 C   0  0  0  0  0  0  0  0  0  0  0  0
    0.9608   48.7273  166.2935 C   0  0  0  0  0  0  0  0  0  0  0  0
    1.7314   47.7709  166.8513 O   0  0  0  0  0  0  0  0  0  0  0  0
   -0.1748   49.2035  166.9674 C   0  0  0  0  0  0  0  0  0  0  0  0
   -1.0275   50.1657  166.3838 C   0  0  0  0  0  0  0  0  0  0  0  0
   -2.1785   50.6327  167.2040 C   0  0  0  0  0  0  0  0  0  0  0  0
   -2.9310   51.8580  166.6259 C   0  0  0  0  0  0  0  0  0  0  0  0
   -3.0692   51.7250  165.0848 C   0  0  2  0  0  0  0  0  0  0  0  0
   -1.6381   51.6875  164.4283 C   0  0  1  0  0  0  0  0  0  0  0  0
   -0.7529   50.6447  165.0670 C   0  0  0  0  0  0  0  0  0  0  0  0
   -1.7460   51.6099  162.8595 C   0  0  0  0  0  0  0  0  0  0  0  0
   -2.7085   52.6676  162.2325 C   0  0  0  0  0  0  0  0  0  0  0  0
   -4.1179   52.6655  162.9073 C   0  0  1  0  0  0  0  0  0  0  0  0
   -3.9074   52.8753  164.4391 C   0  0  1  0  0  0  0  0  0  0  0  0
   -5.3169   53.2166  164.9626 C   0  0  0  0  0  0  0  0  0  0  0  0
   -5.9646   54.0246  163.8066 C   0  0  0  0  0  0  0  0  0  0  0  0
   -4.9919   53.9240  162.6009 C   0  0  2  0  0  0  0  0  0  0  0  0
   -5.6525   53.8880  161.3378 O   0  0  0  0  0  0  0  0  0  0  0  0
   -4.8905   51.3583  162.4833 C   0  0  0  0  0  0  0  0  0  0  0  0
    0.7001   50.5504  163.5069 H   0  0  0  0  0  0  0  0  0  0  0  0
    2.0815   48.8990  164.5105 H   0  0  0  0  0  0  0  0  0  0  0  0
    1.0879   47.1261  167.2273 H   0  0  0  0  0  0  0  0  0  0  0  0
   -0.3845   48.8285  167.8878 H   0  0  0  0  0  0  0  0  0  0  0  0
   -1.8290   50.9023  168.2056 H   0  0  0  0  0  0  0  0  0  0  0  0
   -2.8780   49.7982  167.3134 H   0  0  0  0  0  0  0  0  0  0  0  0
   -2.3817   52.7696  166.8710 H   0  0  0  0  0  0  0  0  0  0  0  0
   -3.9130   51.9120  167.0947 H   0  0  0  0  0  0  0  0  0  0  0  0
   -3.5782   50.7777  164.8951 H   0  0  0  0  0  0  0  0  0  0  0  0
   -1.1422   52.6394  164.6487 H   0  0  0  0  0  0  0  0  0  0  0  0
   -2.0512   50.6020  162.5636 H   0  0  0  0  0  0  0  0  0  0  0  0
   -0.7690   51.7972  162.4053 H   0  0  0  0  0  0  0  0  0  0  0  0
   -2.8057   52.4734  161.1641 H   0  0  0  0  0  0  0  0  0  0  0  0
   -2.2471   53.6561  162.3382 H   0  0  0  0  0  0  0  0  0  0  0  0
   -3.3123   53.7904  164.6040 H   0  0  0  0  0  0  0  0  0  0  0  0
   -5.2723   53.8059  165.8812 H   0  0  0  0  0  0  0  0  0  0  0  0
   -5.8804   52.2999  165.1624 H   0  0  0  0  0  0  0  0  0  0  0  0
   -6.1035   55.0649  164.1009 H   0  0  0  0  0  0  0  0  0  0  0  0
   -6.9373   53.6060  163.5554 H   0  0  0  0  0  0  0  0  0  0  0  0
   -4.3533   54.8126  162.6018 H   0  0  0  0  0  0  0  0  0  0  0  0
   -6.1678   54.7207  161.2868 H   0  0  0  0  0  0  0  0  0  0  0  0
   -4.3721   50.4518  162.7972 H   0  0  0  0  0  0  0  0  0  0  0  0
   -4.9745   51.3137  161.3956 H   0  0  0  0  0  0  0  0  0  0  0  0
   -5.8949   51.3201  162.9011 H   0  0  0  0  0  0  0  0  0  0  0  0
  1  2  2  0  0  0  0
  1 11  1  0  0  0  0
  2  3  1  0  0  0  0
  3  4  1  0  0  0  0
  3  5  2  0  0  0  0
  5  6  1  0  0  0  0
  6  7  1  0  0  0  0
  6 11  2  0  0  0  0
  7  8  1  0  0  0  0
  8  9  1  0  0  0  0
  9 10  1  0  0  0  0
  9 15  1  0  0  0  0
 10 11  1  0  0  0  0
 10 12  1  0  0  0  0
 12 13  1  0  0  0  0
 13 14  1  0  0  0  0
 14 15  1  0  0  0  0
 14 18  1  0  0  0  0
 14 20  1  0  0  0  0
 15 16  1  0  0  0  0
 16 17  1  0  0  0  0
 17 18  1  0  0  0  0
 18 19  1  0  0  0  0
  1 21  1  0  0  0  0
  2 22  1  0  0  0  0
  4 23  1  0  0  0  0
  5 24  1  0  0  0  0
  7 25  1  0  0  0  0
  7 26  1  0  0  0  0
  8 27  1  0  0  0  0
  8 28  1  0  0  0  0
  9 29  1  0  0  0  0
 10 30  1  0  0  0  0
 12 31  1  0  0  0  0
 12 32  1  0  0  0  0
 13 33  1  0  0  0  0
 13 34  1  0  0  0  0
 15 35  1  0  0  0  0
 16 36  1  0  0  0  0
 16 37  1  0  0  0  0
 17 38  1  0  0  0  0
 17 39  1  0  0  0  0
 18 40  1  0  0  0  0
 19 41  1  0  0  0  0
 20 42  1  0  0  0  0
 20 43  1  0  0  0  0
 20 44  1  0  0  0  0
M  END
$$$$
1qkt_736
  -OEChem-01202217033D

 44 47  0     1  0  0  0  0  0999 V2000
   -5.5293   54.0313  162.2807 C   0  0  0  0  0  0  0  0  0  0  0  0
   -6.7475   54.7100  162.0819 C   0  0  0  0  0  0  0  0  0  0  0  0
   -7.9193   54.2156  162.6621 C   0  0  0  0  0  0  0  0  0  0  0  0
   -9.0921   54.8842  162.5046 O   0  0  0  0  0  0  0  0  0  0  0  0
   -7.8853   53.0011  163.3648 C   0  0  0  0  0  0  0  0  0  0  0  0
   -6.6772   52.2790  163.5149 C   0  0  0  0  0  0  0  0  0  0  0  0
   -6.7540   50.9458  164.1731 C   0  0  0  0  0  0  0  0  0  0  0  0
   -5.4286   50.1351  164.1630 C   0  0  0  0  0  0  0  0  0  0  0  0
   -4.2283   51.0795  164.4364 C   0  0  2  0  0  0  0  0  0  0  0  0
   -4.1341   52.1343  163.2673 C   0  0  1  0  0  0  0  0  0  0  0  0
   -5.4559   52.8393  163.0409 C   0  0  0  0  0  0  0  0  0  0  0  0
   -2.8908   53.0778  163.4691 C   0  0  0  0  0  0  0  0  0  0  0  0
   -1.5554   52.3287  163.7724 C   0  0  0  0  0  0  0  0  0  0  0  0
   -1.6894   51.3071  164.9497 C   0  0  1  0  0  0  0  0  0  0  0  0
   -2.8644   50.3326  164.5961 C   0  0  1  0  0  0  0  0  0  0  0  0
   -2.7007   49.1721  165.5980 C   0  0  0  0  0  0  0  0  0  0  0  0
   -1.1640   49.0521  165.7883 C   0  0  0  0  0  0  0  0  0  0  0  0
   -0.5236   50.2766  165.0765 C   0  0  2  0  0  0  0  0  0  0  0  0
    0.6283   50.7486  165.7752 O   0  0  0  0  0  0  0  0  0  0  0  0
   -1.8535   52.0905  166.3087 C   0  0  0  0  0  0  0  0  0  0  0  0
   -4.6932   54.4364  161.8518 H   0  0  0  0  0  0  0  0  0  0  0  0
   -6.7632   55.5780  161.5400 H   0  0  0  0  0  0  0  0  0  0  0  0
   -9.3661   55.1377  163.4231 H   0  0  0  0  0  0  0  0  0  0  0  0
   -8.7594   52.6332  163.7558 H   0  0  0  0  0  0  0  0  0  0  0  0
   -7.5221   50.3467  163.6761 H   0  0  0  0  0  0  0  0  0  0  0  0
   -7.0652   51.0946  165.2109 H   0  0  0  0  0  0  0  0  0  0  0  0
   -5.3055   49.6312  163.1961 H   0  0  0  0  0  0  0  0  0  0  0  0
   -5.4898   49.3586  164.9324 H   0  0  0  0  0  0  0  0  0  0  0  0
   -4.4481   51.5980  165.3729 H   0  0  0  0  0  0  0  0  0  0  0  0
   -3.9374   51.5846  162.3401 H   0  0  0  0  0  0  0  0  0  0  0  0
   -3.0995   53.7897  164.2701 H   0  0  0  0  0  0  0  0  0  0  0  0
   -2.7100   53.6583  162.5642 H   0  0  0  0  0  0  0  0  0  0  0  0
   -0.7711   53.0538  163.9973 H   0  0  0  0  0  0  0  0  0  0  0  0
   -1.2499   51.8041  162.8615 H   0  0  0  0  0  0  0  0  0  0  0  0
   -2.6637   49.8876  163.6090 H   0  0  0  0  0  0  0  0  0  0  0  0
   -3.1246   48.2442  165.2059 H   0  0  0  0  0  0  0  0  0  0  0  0
   -3.1869   49.4000  166.5484 H   0  0  0  0  0  0  0  0  0  0  0  0
   -0.7856   48.1147  165.3634 H   0  0  0  0  0  0  0  0  0  0  0  0
   -0.9223   49.0625  166.8590 H   0  0  0  0  0  0  0  0  0  0  0  0
   -0.1791   49.9690  164.0862 H   0  0  0  0  0  0  0  0  0  0  0  0
    0.9300   51.5289  165.2602 H   0  0  0  0  0  0  0  0  0  0  0  0
   -2.7266   52.7428  166.3091 H   0  0  0  0  0  0  0  0  0  0  0  0
   -0.9826   52.7251  166.4841 H   0  0  0  0  0  0  0  0  0  0  0  0
   -1.9539   51.4202  167.1579 H   0  0  0  0  0  0  0  0  0  0  0  0
  1  2  2  0  0  0  0
  1 11  1  0  0  0  0
  2  3  1  0  0  0  0
  3  4  1  0  0  0  0
  3  5  2  0  0  0  0
  5  6  1  0  0  0  0
  6  7  1  0  0  0  0
  6 11  2  0  0  0  0
  7  8  1  0  0  0  0
  8  9  1  0  0  0  0
  9 10  1  0  0  0  0
  9 15  1  0  0  0  0
 10 11  1  0  0  0  0
 10 12  1  0  0  0  0
 12 13  1  0  0  0  0
 13 14  1  0  0  0  0
 14 15  1  0  0  0  0
 14 18  1  0  0  0  0
 14 20  1  0  0  0  0
 15 16  1  0  0  0  0
 16 17  1  0  0  0  0
 17 18  1  0  0  0  0
 18 19  1  0  0  0  0
  1 21  1  0  0  0  0
  2 22  1  0  0  0  0
  4 23  1  0  0  0  0
  5 24  1  0  0  0  0
  7 25  1  0  0  0  0
  7 26  1  0  0  0  0
  8 27  1  0  0  0  0
  8 28  1  0  0  0  0
  9 29  1  0  0  0  0
 10 30  1  0  0  0  0
 12 31  1  0  0  0  0
 12 32  1  0  0  0  0
 13 33  1  0  0  0  0
 13 34  1  0  0  0  0
 15 35  1  0  0  0  0
 16 36  1  0  0  0  0
 16 37  1  0  0  0  0
 17 38  1  0  0  0  0
 17 39  1  0  0  0  0
 18 40  1  0  0  0  0
 19 41  1  0  0  0  0
 20 42  1  0  0  0  0
 20 43  1  0  0  0  0
 20 44  1  0  0  0  0
M  END
$$$$
1qkt_737
  -OEChem-01202217033D

 44 47  0     1  0  0  0  0  0999 V2000
   -5.3917   53.9814  162.2216 C   0  0  0  0  0  0  0  0  0  0  0  0
   -6.5917   54.6586  161.9422 C   0  0  0  0  0  0  0  0  0  0  0  0
   -7.7962   54.2176  162.5037 C   0  0  0  0  0  0  0  0  0  0  0  0
   -8.9332   54.9111  162.2606 O   0  0  0  0  0  0  0  0  0  0  0  0
   -7.8078   53.0501  163.2861 C   0  0  0  0  0  0  0  0  0  0  0  0
   -6.6175   52.3114  163.5065 C   0  0  0  0  0  0  0  0  0  0  0  0
   -6.7322   51.0193  164.2461 C   0  0  0  0  0  0  0  0  0  0  0  0
   -5.4331   50.1772  164.3175 C   0  0  0  0  0  0  0  0  0  0  0  0
   -4.2055   51.1019  164.5295 C   0  0  2  0  0  0  0  0  0  0  0  0
   -4.0751   52.0863  163.3037 C   0  0  1  0  0  0  0  0  0  0  0  0
   -5.3680   52.8204  163.0375 C   0  0  0  0  0  0  0  0  0  0  0  0
   -2.7898   52.9846  163.4328 C   0  0  0  0  0  0  0  0  0  0  0  0
   -1.4887   52.1938  163.7714 C   0  0  0  0  0  0  0  0  0  0  0  0
   -1.6580   51.2530  165.0038 C   0  0  1  0  0  0  0  0  0  0  0  0
   -2.8689   50.3150  164.7163 C   0  0  1  0  0  0  0  0  0  0  0  0
   -2.7397   49.2120  165.7887 C   0  0  0  0  0  0  0  0  0  0  0  0
   -1.2105   49.0328  165.9708 C   0  0  0  0  0  0  0  0  0  0  0  0
   -0.5339   50.1869  165.1824 C   0  0  2  0  0  0  0  0  0  0  0  0
    0.6506   50.6508  165.8357 O   0  0  0  0  0  0  0  0  0  0  0  0
   -1.7722   52.1229  166.3125 C   0  0  0  0  0  0  0  0  0  0  0  0
   -4.5374   54.3659  161.8184 H   0  0  0  0  0  0  0  0  0  0  0  0
   -6.5749   55.4962  161.3451 H   0  0  0  0  0  0  0  0  0  0  0  0
   -9.4251   54.9195  163.1204 H   0  0  0  0  0  0  0  0  0  0  0  0
   -8.6946   52.7343  163.6873 H   0  0  0  0  0  0  0  0  0  0  0  0
   -7.4987   50.4009  163.7744 H   0  0  0  0  0  0  0  0  0  0  0  0
   -7.0616   51.2391  165.2633 H   0  0  0  0  0  0  0  0  0  0  0  0
   -5.3093   49.6043  163.3937 H   0  0  0  0  0  0  0  0  0  0  0  0
   -5.5202   49.4652  165.1423 H   0  0  0  0  0  0  0  0  0  0  0  0
   -4.4020   51.6782  165.4347 H   0  0  0  0  0  0  0  0  0  0  0  0
   -3.9147   51.4724  162.4060 H   0  0  0  0  0  0  0  0  0  0  0  0
   -2.9603   53.7578  164.1827 H   0  0  0  0  0  0  0  0  0  0  0  0
   -2.5922   53.4922  162.4878 H   0  0  0  0  0  0  0  0  0  0  0  0
   -0.6722   52.8977  163.9522 H   0  0  0  0  0  0  0  0  0  0  0  0
   -1.2126   51.6043  162.8923 H   0  0  0  0  0  0  0  0  0  0  0  0
   -2.7028   49.7989  163.7579 H   0  0  0  0  0  0  0  0  0  0  0  0
   -3.2112   48.2787  165.4691 H   0  0  0  0  0  0  0  0  0  0  0  0
   -3.2073   49.5338  166.7199 H   0  0  0  0  0  0  0  0  0  0  0  0
   -0.8809   48.0660  165.5827 H   0  0  0  0  0  0  0  0  0  0  0  0
   -0.9519   49.0844  167.0329 H   0  0  0  0  0  0  0  0  0  0  0  0
   -0.2251   49.8057  164.2038 H   0  0  0  0  0  0  0  0  0  0  0  0
    0.9997   51.3681  165.2695 H   0  0  0  0  0  0  0  0  0  0  0  0
   -2.6356   52.7859  166.2983 H   0  0  0  0  0  0  0  0  0  0  0  0
   -0.8882   52.7517  166.4294 H   0  0  0  0  0  0  0  0  0  0  0  0
   -1.8541   51.5091  167.2107 H   0  0  0  0  0  0  0  0  0  0  0  0
  1  2  2  0  0  0  0
  1 11  1  0  0  0  0
  2  3  1  0  0  0  0
  3  4  1  0  0  0  0
  3  5  2  0  0  0  0
  5  6  1  0  0  0  0
  6  7  1  0  0  0  0
  6 11  2  0  0  0  0
  7  8  1  0  0  0  0
  8  9  1  0  0  0  0
  9 10  1  0  0  0  0
  9 15  1  0  0  0  0
 10 11  1  0  0  0  0
 10 12  1  0  0  0  0
 12 13  1  0  0  0  0
 13 14  1  0  0  0  0
 14 15  1  0  0  0  0
 14 18  1  0  0  0  0
 14 20  1  0  0  0  0
 15 16  1  0  0  0  0
 16 17  1  0  0  0  0
 17 18  1  0  0  0  0
 18 19  1  0  0  0  0
  1 21  1  0  0  0  0
  2 22  1  0  0  0  0
  4 23  1  0  0  0  0
  5 24  1  0  0  0  0
  7 25  1  0  0  0  0
  7 26  1  0  0  0  0
  8 27  1  0  0  0  0
  8 28  1  0  0  0  0
  9 29  1  0  0  0  0
 10 30  1  0  0  0  0
 12 31  1  0  0  0  0
 12 32  1  0  0  0  0
 13 33  1  0  0  0  0
 13 34  1  0  0  0  0
 15 35  1  0  0  0  0
 16 36  1  0  0  0  0
 16 37  1  0  0  0  0
 17 38  1  0  0  0  0
 17 39  1  0  0  0  0
 18 40  1  0  0  0  0
 19 41  1  0  0  0  0
 20 42  1  0  0  0  0
 20 43  1  0  0  0  0
 20 44  1  0  0  0  0
M  END
$$$$
1qkt_738
  -OEChem-01202217033D

 44 47  0     1  0  0  0  0  0999 V2000
    0.4808   50.2176  164.4073 C   0  0  0  0  0  0  0  0  0  0  0  0
    1.2923   49.2268  164.9848 C   0  0  0  0  0  0  0  0  0  0  0  0
    0.9576   48.6836  166.2330 C   0  0  0  0  0  0  0  0  0  0  0  0
    1.7361   47.7119  166.7669 O   0  0  0  0  0  0  0  0  0  0  0  0
   -0.1796   49.1534  166.9123 C   0  0  0  0  0  0  0  0  0  0  0  0
   -1.0006   50.1536  166.3441 C   0  0  0  0  0  0  0  0  0  0  0  0
   -2.1819   50.5895  167.1406 C   0  0  0  0  0  0  0  0  0  0  0  0
   -2.9259   51.8228  166.5764 C   0  0  0  0  0  0  0  0  0  0  0  0
   -3.0318   51.7218  165.0318 C   0  0  2  0  0  0  0  0  0  0  0  0
   -1.5836   51.7239  164.4098 C   0  0  1  0  0  0  0  0  0  0  0  0
   -0.7062   50.6688  165.0420 C   0  0  0  0  0  0  0  0  0  0  0  0
   -1.6579   51.6971  162.8400 C   0  0  0  0  0  0  0  0  0  0  0  0
   -2.6308   52.7483  162.2212 C   0  0  0  0  0  0  0  0  0  0  0  0
   -4.0575   52.6982  162.8620 C   0  0  1  0  0  0  0  0  0  0  0  0
   -3.8809   52.8691  164.4040 C   0  0  1  0  0  0  0  0  0  0  0  0
   -5.3078   53.1641  164.9135 C   0  0  0  0  0  0  0  0  0  0  0  0
   -5.9566   53.9847  163.7670 C   0  0  0  0  0  0  0  0  0  0  0  0
   -4.9642   53.9360  162.5712 C   0  0  2  0  0  0  0  0  0  0  0  0
   -5.6427   53.9186  161.3144 O   0  0  0  0  0  0  0  0  0  0  0  0
   -4.7970   51.3855  162.4003 C   0  0  0  0  0  0  0  0  0  0  0  0
    0.7787   50.5928  163.5086 H   0  0  0  0  0  0  0  0  0  0  0  0
    2.1264   48.8974  164.4949 H   0  0  0  0  0  0  0  0  0  0  0  0
    1.1503   47.2033  167.3719 H   0  0  0  0  0  0  0  0  0  0  0  0
   -0.4001   48.7649  167.8329 H   0  0  0  0  0  0  0  0  0  0  0  0
   -1.8740   50.8257  168.1630 H   0  0  0  0  0  0  0  0  0  0  0  0
   -2.8811   49.7502  167.1899 H   0  0  0  0  0  0  0  0  0  0  0  0
   -2.3859   52.7327  166.8529 H   0  0  0  0  0  0  0  0  0  0  0  0
   -3.9195   51.8680  167.0313 H   0  0  0  0  0  0  0  0  0  0  0  0
   -3.5173   50.7694  164.8159 H   0  0  0  0  0  0  0  0  0  0  0  0
   -1.1096   52.6759  164.6696 H   0  0  0  0  0  0  0  0  0  0  0  0
   -1.9421   50.6968  162.5112 H   0  0  0  0  0  0  0  0  0  0  0  0
   -0.6745   51.9104  162.4160 H   0  0  0  0  0  0  0  0  0  0  0  0
   -2.6979   52.5875  161.1416 H   0  0  0  0  0  0  0  0  0  0  0  0
   -2.1962   53.7432  162.3673 H   0  0  0  0  0  0  0  0  0  0  0  0
   -3.3118   53.7929  164.5970 H   0  0  0  0  0  0  0  0  0  0  0  0
   -5.2897   53.7359  165.8446 H   0  0  0  0  0  0  0  0  0  0  0  0
   -5.8561   52.2346  165.0839 H   0  0  0  0  0  0  0  0  0  0  0  0
   -6.1303   55.0186  164.0814 H   0  0  0  0  0  0  0  0  0  0  0  0
   -6.9213   53.5454  163.4932 H   0  0  0  0  0  0  0  0  0  0  0  0
   -4.3581   54.8462  162.5868 H   0  0  0  0  0  0  0  0  0  0  0  0
   -4.9288   53.8845  160.6361 H   0  0  0  0  0  0  0  0  0  0  0  0
   -4.2722   50.4793  162.7019 H   0  0  0  0  0  0  0  0  0  0  0  0
   -4.8730   51.3603  161.3113 H   0  0  0  0  0  0  0  0  0  0  0  0
   -5.8085   51.3209  162.8019 H   0  0  0  0  0  0  0  0  0  0  0  0
  1  2  2  0  0  0  0
  1 11  1  0  0  0  0
  2  3  1  0  0  0  0
  3  4  1  0  0  0  0
  3  5  2  0  0  0  0
  5  6  1  0  0  0  0
  6  7  1  0  0  0  0
  6 11  2  0  0  0  0
  7  8  1  0  0  0  0
  8  9  1  0  0  0  0
  9 10  1  0  0  0  0
  9 15  1  0  0  0  0
 10 11  1  0  0  0  0
 10 12  1  0  0  0  0
 12 13  1  0  0  0  0
 13 14  1  0  0  0  0
 14 15  1  0  0  0  0
 14 18  1  0  0  0  0
 14 20  1  0  0  0  0
 15 16  1  0  0  0  0
 16 17  1  0  0  0  0
 17 18  1  0  0  0  0
 18 19  1  0  0  0  0
  1 21  1  0  0  0  0
  2 22  1  0  0  0  0
  4 23  1  0  0  0  0
  5 24  1  0  0  0  0
  7 25  1  0  0  0  0
  7 26  1  0  0  0  0
  8 27  1  0  0  0  0
  8 28  1  0  0  0  0
  9 29  1  0  0  0  0
 10 30  1  0  0  0  0
 12 31  1  0  0  0  0
 12 32  1  0  0  0  0
 13 33  1  0  0  0  0
 13 34  1  0  0  0  0
 15 35  1  0  0  0  0
 16 36  1  0  0  0  0
 16 37  1  0  0  0  0
 17 38  1  0  0  0  0
 17 39  1  0  0  0  0
 18 40  1  0  0  0  0
 19 41  1  0  0  0  0
 20 42  1  0  0  0  0
 20 43  1  0  0  0  0
 20 44  1  0  0  0  0
M  END
$$$$
1qkt_740
  -OEChem-01202217033D

 44 47  0     1  0  0  0  0  0999 V2000
   -5.4685   54.0587  162.2585 C   0  0  0  0  0  0  0  0  0  0  0  0
   -6.6766   54.7277  162.0160 C   0  0  0  0  0  0  0  0  0  0  0  0
   -7.8771   54.2205  162.5291 C   0  0  0  0  0  0  0  0  0  0  0  0
   -9.0411   54.8724  162.2973 O   0  0  0  0  0  0  0  0  0  0  0  0
   -7.8641   53.0174  163.2527 C   0  0  0  0  0  0  0  0  0  0  0  0
   -6.6582   52.3102  163.4714 C   0  0  0  0  0  0  0  0  0  0  0  0
   -6.7431   51.0017  164.1865 C   0  0  0  0  0  0  0  0  0  0  0  0
   -5.4251   50.1900  164.2432 C   0  0  0  0  0  0  0  0  0  0  0  0
   -4.2158   51.1307  164.4778 C   0  0  2  0  0  0  0  0  0  0  0  0
   -4.1092   52.1557  163.2820 C   0  0  1  0  0  0  0  0  0  0  0  0
   -5.4158   52.8649  163.0303 C   0  0  0  0  0  0  0  0  0  0  0  0
   -2.8522   53.0831  163.4672 C   0  0  0  0  0  0  0  0  0  0  0  0
   -1.5305   52.3132  163.7735 C   0  0  0  0  0  0  0  0  0  0  0  0
   -1.6735   51.3118  164.9658 C   0  0  1  0  0  0  0  0  0  0  0  0
   -2.8660   50.3608  164.6313 C   0  0  1  0  0  0  0  0  0  0  0  0
   -2.7109   49.2098  165.6522 C   0  0  0  0  0  0  0  0  0  0  0  0
   -1.1765   49.0493  165.8158 C   0  0  0  0  0  0  0  0  0  0  0  0
   -0.5249   50.2608  165.0917 C   0  0  2  0  0  0  0  0  0  0  0  0
    0.6439   50.7270  165.7721 O   0  0  0  0  0  0  0  0  0  0  0  0
   -1.7983   52.1146  166.3160 C   0  0  0  0  0  0  0  0  0  0  0  0
   -4.6247   54.4664  161.8602 H   0  0  0  0  0  0  0  0  0  0  0  0
   -6.6834   55.5933  161.4727 H   0  0  0  0  0  0  0  0  0  0  0  0
   -9.3866   55.0937  163.1865 H   0  0  0  0  0  0  0  0  0  0  0  0
   -8.7549   52.6446  163.5942 H   0  0  0  0  0  0  0  0  0  0  0  0
   -7.5018   50.3737  163.7059 H   0  0  0  0  0  0  0  0  0  0  0  0
   -7.0784   51.2025  165.2088 H   0  0  0  0  0  0  0  0  0  0  0  0
   -5.2923   49.6399  163.3066 H   0  0  0  0  0  0  0  0  0  0  0  0
   -5.4998   49.4592  165.0521 H   0  0  0  0  0  0  0  0  0  0  0  0
   -4.4177   51.6765  165.4036 H   0  0  0  0  0  0  0  0  0  0  0  0
   -3.9242   51.5810  162.3675 H   0  0  0  0  0  0  0  0  0  0  0  0
   -3.0494   53.8098  164.2581 H   0  0  0  0  0  0  0  0  0  0  0  0
   -2.6642   53.6465  162.5529 H   0  0  0  0  0  0  0  0  0  0  0  0
   -0.7331   53.0341  163.9875 H   0  0  0  0  0  0  0  0  0  0  0  0
   -1.2350   51.7729  162.8678 H   0  0  0  0  0  0  0  0  0  0  0  0
   -2.6835   49.8955  163.6531 H   0  0  0  0  0  0  0  0  0  0  0  0
   -3.1685   48.2864  165.2844 H   0  0  0  0  0  0  0  0  0  0  0  0
   -3.1798   49.4764  166.6035 H   0  0  0  0  0  0  0  0  0  0  0  0
   -0.8362   48.1114  165.3706 H   0  0  0  0  0  0  0  0  0  0  0  0
   -0.9117   49.0439  166.8775 H   0  0  0  0  0  0  0  0  0  0  0  0
   -0.2045   49.9411  164.0933 H   0  0  0  0  0  0  0  0  0  0  0  0
    0.9907   51.4612  165.2221 H   0  0  0  0  0  0  0  0  0  0  0  0
   -2.6536   52.7799  166.3233 H   0  0  0  0  0  0  0  0  0  0  0  0
   -0.9038   52.7224  166.4716 H   0  0  0  0  0  0  0  0  0  0  0  0
   -1.8951   51.4528  167.1804 H   0  0  0  0  0  0  0  0  0  0  0  0
  1  2  2  0  0  0  0
  1 11  1  0  0  0  0
  2  3  1  0  0  0  0
  3  4  1  0  0  0  0
  3  5  2  0  0  0  0
  5  6  1  0  0  0  0
  6  7  1  0  0  0  0
  6 11  2  0  0  0  0
  7  8  1  0  0  0  0
  8  9  1  0  0  0  0
  9 10  1  0  0  0  0
  9 15  1  0  0  0  0
 10 11  1  0  0  0  0
 10 12  1  0  0  0  0
 12 13  1  0  0  0  0
 13 14  1  0  0  0  0
 14 15  1  0  0  0  0
 14 18  1  0  0  0  0
 14 20  1  0  0  0  0
 15 16  1  0  0  0  0
 16 17  1  0  0  0  0
 17 18  1  0  0  0  0
 18 19  1  0  0  0  0
  1 21  1  0  0  0  0
  2 22  1  0  0  0  0
  4 23  1  0  0  0  0
  5 24  1  0  0  0  0
  7 25  1  0  0  0  0
  7 26  1  0  0  0  0
  8 27  1  0  0  0  0
  8 28  1  0  0  0  0
  9 29  1  0  0  0  0
 10 30  1  0  0  0  0
 12 31  1  0  0  0  0
 12 32  1  0  0  0  0
 13 33  1  0  0  0  0
 13 34  1  0  0  0  0
 15 35  1  0  0  0  0
 16 36  1  0  0  0  0
 16 37  1  0  0  0  0
 17 38  1  0  0  0  0
 17 39  1  0  0  0  0
 18 40  1  0  0  0  0
 19 41  1  0  0  0  0
 20 42  1  0  0  0  0
 20 43  1  0  0  0  0
 20 44  1  0  0  0  0
M  END
$$$$
1qkt_742
  -OEChem-01202217033D

 44 47  0     1  0  0  0  0  0999 V2000
   -4.5040   53.9336  161.0131 C   0  0  0  0  0  0  0  0  0  0  0  0
   -5.5568   54.7766  160.6169 C   0  0  0  0  0  0  0  0  0  0  0  0
   -6.7724   54.7611  161.3195 C   0  0  0  0  0  0  0  0  0  0  0  0
   -7.7764   55.5801  160.9120 O   0  0  0  0  0  0  0  0  0  0  0  0
   -6.9390   53.8733  162.3977 C   0  0  0  0  0  0  0  0  0  0  0  0
   -5.8942   52.9937  162.7751 C   0  0  0  0  0  0  0  0  0  0  0  0
   -6.1809   52.0198  163.8673 C   0  0  0  0  0  0  0  0  0  0  0  0
   -5.0859   50.9547  164.1170 C   0  0  0  0  0  0  0  0  0  0  0  0
   -3.6823   51.6061  164.0014 C   0  0  2  0  0  0  0  0  0  0  0  0
   -3.4888   52.1481  162.5328 C   0  0  1  0  0  0  0  0  0  0  0  0
   -4.6248   53.0570  162.1226 C   0  0  0  0  0  0  0  0  0  0  0  0
   -2.0443   52.7394  162.3477 C   0  0  0  0  0  0  0  0  0  0  0  0
   -0.8953   51.8169  162.8686 C   0  0  0  0  0  0  0  0  0  0  0  0
   -1.1247   51.3352  164.3398 C   0  0  1  0  0  0  0  0  0  0  0  0
   -2.5227   50.6335  164.3723 C   0  0  1  0  0  0  0  0  0  0  0  0
   -2.5291   49.8819  165.7231 C   0  0  0  0  0  0  0  0  0  0  0  0
   -1.0585   49.4243  165.9049 C   0  0  0  0  0  0  0  0  0  0  0  0
   -0.2233   50.1501  164.8122 C   0  0  2  0  0  0  0  0  0  0  0  0
    1.0686   50.5260  165.2787 O   0  0  0  0  0  0  0  0  0  0  0  0
   -0.9439   52.5510  165.3298 C   0  0  0  0  0  0  0  0  0  0  0  0
   -3.6481   53.9734  160.4655 H   0  0  0  0  0  0  0  0  0  0  0  0
   -5.4357   55.4081  159.8280 H   0  0  0  0  0  0  0  0  0  0  0  0
   -8.3013   55.8032  161.7169 H   0  0  0  0  0  0  0  0  0  0  0  0
   -7.8390   53.8433  162.8870 H   0  0  0  0  0  0  0  0  0  0  0  0
   -7.1164   51.4923  163.6495 H   0  0  0  0  0  0  0  0  0  0  0  0
   -6.3192   52.5891  164.7914 H   0  0  0  0  0  0  0  0  0  0  0  0
   -5.1839   50.1446  163.3860 H   0  0  0  0  0  0  0  0  0  0  0  0
   -5.2312   50.5299  165.1118 H   0  0  0  0  0  0  0  0  0  0  0  0
   -3.6668   52.4449  164.6994 H   0  0  0  0  0  0  0  0  0  0  0  0
   -3.5518   51.2931  161.8485 H   0  0  0  0  0  0  0  0  0  0  0  0
   -1.9930   53.7104  162.8364 H   0  0  0  0  0  0  0  0  0  0  0  0
   -1.8441   52.8985  161.2872 H   0  0  0  0  0  0  0  0  0  0  0  0
    0.0687   52.3326  162.7941 H   0  0  0  0  0  0  0  0  0  0  0  0
   -0.8284   50.9508  162.2035 H   0  0  0  0  0  0  0  0  0  0  0  0
   -2.5462   49.8418  163.6026 H   0  0  0  0  0  0  0  0  0  0  0  0
   -3.2084   49.0280  165.7046 H   0  0  0  0  0  0  0  0  0  0  0  0
   -2.8326   50.5489  166.5304 H   0  0  0  0  0  0  0  0  0  0  0  0
   -0.9716   48.3357  165.7830 H   0  0  0  0  0  0  0  0  0  0  0  0
   -0.7016   49.6879  166.9075 H   0  0  0  0  0  0  0  0  0  0  0  0
   -0.0579   49.4553  163.9861 H   0  0  0  0  0  0  0  0  0  0  0  0
    1.5191   50.9238  164.5050 H   0  0  0  0  0  0  0  0  0  0  0  0
   -1.6278   53.3697  165.1156 H   0  0  0  0  0  0  0  0  0  0  0  0
    0.0678   52.9504  165.2392 H   0  0  0  0  0  0  0  0  0  0  0  0
   -1.0957   52.2599  166.3723 H   0  0  0  0  0  0  0  0  0  0  0  0
  1  2  2  0  0  0  0
  1 11  1  0  0  0  0
  2  3  1  0  0  0  0
  3  4  1  0  0  0  0
  3  5  2  0  0  0  0
  5  6  1  0  0  0  0
  6  7  1  0  0  0  0
  6 11  2  0  0  0  0
  7  8  1  0  0  0  0
  8  9  1  0  0  0  0
  9 10  1  0  0  0  0
  9 15  1  0  0  0  0
 10 11  1  0  0  0  0
 10 12  1  0  0  0  0
 12 13  1  0  0  0  0
 13 14  1  0  0  0  0
 14 15  1  0  0  0  0
 14 18  1  0  0  0  0
 14 20  1  0  0  0  0
 15 16  1  0  0  0  0
 16 17  1  0  0  0  0
 17 18  1  0  0  0  0
 18 19  1  0  0  0  0
  1 21  1  0  0  0  0
  2 22  1  0  0  0  0
  4 23  1  0  0  0  0
  5 24  1  0  0  0  0
  7 25  1  0  0  0  0
  7 26  1  0  0  0  0
  8 27  1  0  0  0  0
  8 28  1  0  0  0  0
  9 29  1  0  0  0  0
 10 30  1  0  0  0  0
 12 31  1  0  0  0  0
 12 32  1  0  0  0  0
 13 33  1  0  0  0  0
 13 34  1  0  0  0  0
 15 35  1  0  0  0  0
 16 36  1  0  0  0  0
 16 37  1  0  0  0  0
 17 38  1  0  0  0  0
 17 39  1  0  0  0  0
 18 40  1  0  0  0  0
 19 41  1  0  0  0  0
 20 42  1  0  0  0  0
 20 43  1  0  0  0  0
 20 44  1  0  0  0  0
M  END
$$$$
1qkt_744
  -OEChem-01202217033D

 44 47  0     1  0  0  0  0  0999 V2000
    0.4372   50.3059  164.3186 C   0  0  0  0  0  0  0  0  0  0  0  0
    1.2798   49.3420  164.8957 C   0  0  0  0  0  0  0  0  0  0  0  0
    0.9671   48.8002  166.1512 C   0  0  0  0  0  0  0  0  0  0  0  0
    1.7700   47.8783  166.7254 O   0  0  0  0  0  0  0  0  0  0  0  0
   -0.1758   49.2361  166.8353 C   0  0  0  0  0  0  0  0  0  0  0  0
   -1.0208   50.2211  166.2751 C   0  0  0  0  0  0  0  0  0  0  0  0
   -2.1755   50.6676  167.1030 C   0  0  0  0  0  0  0  0  0  0  0  0
   -2.9513   51.8835  166.5425 C   0  0  0  0  0  0  0  0  0  0  0  0
   -3.0826   51.7800  165.0001 C   0  0  2  0  0  0  0  0  0  0  0  0
   -1.6471   51.7758  164.3462 C   0  0  1  0  0  0  0  0  0  0  0  0
   -0.7523   50.7338  164.9681 C   0  0  0  0  0  0  0  0  0  0  0  0
   -1.7571   51.7244  162.7777 C   0  0  0  0  0  0  0  0  0  0  0  0
   -2.7284   52.7835  162.1734 C   0  0  0  0  0  0  0  0  0  0  0  0
   -4.1407   52.7484  162.8440 C   0  0  1  0  0  0  0  0  0  0  0  0
   -3.9337   52.9323  164.3811 C   0  0  1  0  0  0  0  0  0  0  0  0
   -5.3491   53.2479  164.9103 C   0  0  0  0  0  0  0  0  0  0  0  0
   -6.0003   54.0769  163.7728 C   0  0  0  0  0  0  0  0  0  0  0  0
   -5.0427   53.9875  162.5506 C   0  0  2  0  0  0  0  0  0  0  0  0
   -5.7559   53.9359  161.3146 O   0  0  0  0  0  0  0  0  0  0  0  0
   -4.8958   51.4374  162.4051 C   0  0  0  0  0  0  0  0  0  0  0  0
    0.7180   50.6903  163.4171 H   0  0  0  0  0  0  0  0  0  0  0  0
    2.1220   49.0399  164.4019 H   0  0  0  0  0  0  0  0  0  0  0  0
    2.6750   48.2142  166.5603 H   0  0  0  0  0  0  0  0  0  0  0  0
   -0.3745   48.8471  167.7607 H   0  0  0  0  0  0  0  0  0  0  0  0
   -1.8274   50.9309  168.1065 H   0  0  0  0  0  0  0  0  0  0  0  0
   -2.8641   49.8242  167.2026 H   0  0  0  0  0  0  0  0  0  0  0  0
   -2.4236   52.8024  166.8068 H   0  0  0  0  0  0  0  0  0  0  0  0
   -3.9383   51.9139  167.0121 H   0  0  0  0  0  0  0  0  0  0  0  0
   -3.5765   50.8269  164.7946 H   0  0  0  0  0  0  0  0  0  0  0  0
   -1.1703   52.7337  164.5806 H   0  0  0  0  0  0  0  0  0  0  0  0
   -2.0599   50.7220  162.4694 H   0  0  0  0  0  0  0  0  0  0  0  0
   -0.7825   51.9184  162.3239 H   0  0  0  0  0  0  0  0  0  0  0  0
   -2.8182   52.6199  161.0962 H   0  0  0  0  0  0  0  0  0  0  0  0
   -2.2774   53.7723  162.3108 H   0  0  0  0  0  0  0  0  0  0  0  0
   -3.3541   53.8523  164.5577 H   0  0  0  0  0  0  0  0  0  0  0  0
   -5.3105   53.8179  165.8431 H   0  0  0  0  0  0  0  0  0  0  0  0
   -5.9066   52.3240  165.0876 H   0  0  0  0  0  0  0  0  0  0  0  0
   -6.1314   55.1166  164.0815 H   0  0  0  0  0  0  0  0  0  0  0  0
   -6.9842   53.6662  163.5284 H   0  0  0  0  0  0  0  0  0  0  0  0
   -4.4251   54.8904  162.5196 H   0  0  0  0  0  0  0  0  0  0  0  0
   -5.0765   53.7471  160.6323 H   0  0  0  0  0  0  0  0  0  0  0  0
   -4.3628   50.5300  162.6818 H   0  0  0  0  0  0  0  0  0  0  0  0
   -5.0031   51.4195  161.3199 H   0  0  0  0  0  0  0  0  0  0  0  0
   -5.8947   51.3769  162.8388 H   0  0  0  0  0  0  0  0  0  0  0  0
  1  2  2  0  0  0  0
  1 11  1  0  0  0  0
  2  3  1  0  0  0  0
  3  4  1  0  0  0  0
  3  5  2  0  0  0  0
  5  6  1  0  0  0  0
  6  7  1  0  0  0  0
  6 11  2  0  0  0  0
  7  8  1  0  0  0  0
  8  9  1  0  0  0  0
  9 10  1  0  0  0  0
  9 15  1  0  0  0  0
 10 11  1  0  0  0  0
 10 12  1  0  0  0  0
 12 13  1  0  0  0  0
 13 14  1  0  0  0  0
 14 15  1  0  0  0  0
 14 18  1  0  0  0  0
 14 20  1  0  0  0  0
 15 16  1  0  0  0  0
 16 17  1  0  0  0  0
 17 18  1  0  0  0  0
 18 19  1  0  0  0  0
  1 21  1  0  0  0  0
  2 22  1  0  0  0  0
  4 23  1  0  0  0  0
  5 24  1  0  0  0  0
  7 25  1  0  0  0  0
  7 26  1  0  0  0  0
  8 27  1  0  0  0  0
  8 28  1  0  0  0  0
  9 29  1  0  0  0  0
 10 30  1  0  0  0  0
 12 31  1  0  0  0  0
 12 32  1  0  0  0  0
 13 33  1  0  0  0  0
 13 34  1  0  0  0  0
 15 35  1  0  0  0  0
 16 36  1  0  0  0  0
 16 37  1  0  0  0  0
 17 38  1  0  0  0  0
 17 39  1  0  0  0  0
 18 40  1  0  0  0  0
 19 41  1  0  0  0  0
 20 42  1  0  0  0  0
 20 43  1  0  0  0  0
 20 44  1  0  0  0  0
M  END
$$$$
1qkt_746
  -OEChem-01202217033D

 44 47  0     1  0  0  0  0  0999 V2000
   -1.9178   49.4202  165.8797 C   0  0  0  0  0  0  0  0  0  0  0  0
   -0.7217   48.8735  166.3634 C   0  0  0  0  0  0  0  0  0  0  0  0
    0.4967   49.1613  165.7305 C   0  0  0  0  0  0  0  0  0  0  0  0
    1.6402   48.6381  166.2361 O   0  0  0  0  0  0  0  0  0  0  0  0
    0.4985   49.9553  164.5694 C   0  0  0  0  0  0  0  0  0  0  0  0
   -0.7012   50.4989  164.0607 C   0  0  0  0  0  0  0  0  0  0  0  0
   -0.6130   51.2834  162.8005 C   0  0  0  0  0  0  0  0  0  0  0  0
   -1.9667   51.6900  162.1691 C   0  0  0  0  0  0  0  0  0  0  0  0
   -2.9793   52.0982  163.2724 C   0  0  2  0  0  0  0  0  0  0  0  0
   -3.2256   50.8652  164.2283 C   0  0  1  0  0  0  0  0  0  0  0  0
   -1.9342   50.2816  164.7473 C   0  0  0  0  0  0  0  0  0  0  0  0
   -4.2959   51.2364  165.3201 C   0  0  0  0  0  0  0  0  0  0  0  0
   -5.5992   51.8783  164.7510 C   0  0  0  0  0  0  0  0  0  0  0  0
   -5.3132   53.0990  163.8172 C   0  0  1  0  0  0  0  0  0  0  0  0
   -4.3429   52.6008  162.6965 C   0  0  1  0  0  0  0  0  0  0  0  0
   -4.3893   53.7214  161.6345 C   0  0  0  0  0  0  0  0  0  0  0  0
   -5.8556   54.2226  161.6902 C   0  0  0  0  0  0  0  0  0  0  0  0
   -6.5152   53.5553  162.9300 C   0  0  2  0  0  0  0  0  0  0  0  0
   -7.4663   54.4276  163.5430 O   0  0  0  0  0  0  0  0  0  0  0  0
   -4.7981   54.3164  164.6758 C   0  0  0  0  0  0  0  0  0  0  0  0
   -2.7809   49.1755  166.3674 H   0  0  0  0  0  0  0  0  0  0  0  0
   -0.7413   48.2824  167.1974 H   0  0  0  0  0  0  0  0  0  0  0  0
    2.3600   49.2601  165.9983 H   0  0  0  0  0  0  0  0  0  0  0  0
    1.3878   50.1226  164.0957 H   0  0  0  0  0  0  0  0  0  0  0  0
   -0.0660   50.7040  162.0580 H   0  0  0  0  0  0  0  0  0  0  0  0
   -0.0326   52.1823  163.0082 H   0  0  0  0  0  0  0  0  0  0  0  0
   -2.3712   50.8560  161.5863 H   0  0  0  0  0  0  0  0  0  0  0  0
   -1.7960   52.5229  161.4812 H   0  0  0  0  0  0  0  0  0  0  0  0
   -2.5113   52.9086  163.8402 H   0  0  0  0  0  0  0  0  0  0  0  0
   -3.6750   50.0632  163.6305 H   0  0  0  0  0  0  0  0  0  0  0  0
   -3.8423   51.9034  166.0572 H   0  0  0  0  0  0  0  0  0  0  0  0
   -4.6118   50.3367  165.8538 H   0  0  0  0  0  0  0  0  0  0  0  0
   -6.2341   52.1824  165.5831 H   0  0  0  0  0  0  0  0  0  0  0  0
   -6.1453   51.1063  164.1993 H   0  0  0  0  0  0  0  0  0  0  0  0
   -4.7868   51.7223  162.1995 H   0  0  0  0  0  0  0  0  0  0  0  0
   -4.1384   53.3408  160.6405 H   0  0  0  0  0  0  0  0  0  0  0  0
   -3.6944   54.5259  161.8908 H   0  0  0  0  0  0  0  0  0  0  0  0
   -6.3936   53.9547  160.7782 H   0  0  0  0  0  0  0  0  0  0  0  0
   -5.8782   55.3107  161.7668 H   0  0  0  0  0  0  0  0  0  0  0  0
   -7.0735   52.6791  162.5865 H   0  0  0  0  0  0  0  0  0  0  0  0
   -8.2521   53.8712  163.7343 H   0  0  0  0  0  0  0  0  0  0  0  0
   -3.8873   54.0863  165.2307 H   0  0  0  0  0  0  0  0  0  0  0  0
   -5.5631   54.6133  165.3997 H   0  0  0  0  0  0  0  0  0  0  0  0
   -4.5761   55.1806  164.0513 H   0  0  0  0  0  0  0  0  0  0  0  0
  1  2  2  0  0  0  0
  1 11  1  0  0  0  0
  2  3  1  0  0  0  0
  3  4  1  0  0  0  0
  3  5  2  0  0  0  0
  5  6  1  0  0  0  0
  6  7  1  0  0  0  0
  6 11  2  0  0  0  0
  7  8  1  0  0  0  0
  8  9  1  0  0  0  0
  9 10  1  0  0  0  0
  9 15  1  0  0  0  0
 10 11  1  0  0  0  0
 10 12  1  0  0  0  0
 12 13  1  0  0  0  0
 13 14  1  0  0  0  0
 14 15  1  0  0  0  0
 14 18  1  0  0  0  0
 14 20  1  0  0  0  0
 15 16  1  0  0  0  0
 16 17  1  0  0  0  0
 17 18  1  0  0  0  0
 18 19  1  0  0  0  0
  1 21  1  0  0  0  0
  2 22  1  0  0  0  0
  4 23  1  0  0  0  0
  5 24  1  0  0  0  0
  7 25  1  0  0  0  0
  7 26  1  0  0  0  0
  8 27  1  0  0  0  0
  8 28  1  0  0  0  0
  9 29  1  0  0  0  0
 10 30  1  0  0  0  0
 12 31  1  0  0  0  0
 12 32  1  0  0  0  0
 13 33  1  0  0  0  0
 13 34  1  0  0  0  0
 15 35  1  0  0  0  0
 16 36  1  0  0  0  0
 16 37  1  0  0  0  0
 17 38  1  0  0  0  0
 17 39  1  0  0  0  0
 18 40  1  0  0  0  0
 19 41  1  0  0  0  0
 20 42  1  0  0  0  0
 20 43  1  0  0  0  0
 20 44  1  0  0  0  0
M  END
$$$$
1qkt_750
  -OEChem-01202217033D

 44 47  0     1  0  0  0  0  0999 V2000
   -5.0452   53.3942  164.4100 C   0  0  0  0  0  0  0  0  0  0  0  0
   -6.0837   53.9180  163.6194 C   0  0  0  0  0  0  0  0  0  0  0  0
   -5.9421   53.9838  162.2249 C   0  0  0  0  0  0  0  0  0  0  0  0
   -6.9449   54.4474  161.4406 O   0  0  0  0  0  0  0  0  0  0  0  0
   -4.7474   53.5557  161.6309 C   0  0  0  0  0  0  0  0  0  0  0  0
   -3.6923   53.0349  162.4153 C   0  0  0  0  0  0  0  0  0  0  0  0
   -2.4535   52.6324  161.6949 C   0  0  0  0  0  0  0  0  0  0  0  0
   -1.2653   52.2531  162.6078 C   0  0  0  0  0  0  0  0  0  0  0  0
   -1.7421   51.4367  163.8319 C   0  0  2  0  0  0  0  0  0  0  0  0
   -2.7439   52.3154  164.6768 C   0  0  1  0  0  0  0  0  0  0  0  0
   -3.8524   52.8881  163.8278 C   0  0  0  0  0  0  0  0  0  0  0  0
   -3.1941   51.5339  165.9633 C   0  0  0  0  0  0  0  0  0  0  0  0
   -2.0156   50.9270  166.7894 C   0  0  0  0  0  0  0  0  0  0  0  0
   -1.0351   50.0694  165.9196 C   0  0  1  0  0  0  0  0  0  0  0  0
   -0.5584   50.9714  164.7382 C   0  0  1  0  0  0  0  0  0  0  0  0
    0.6532   50.2128  164.1464 C   0  0  0  0  0  0  0  0  0  0  0  0
    1.3204   49.5277  165.3662 C   0  0  0  0  0  0  0  0  0  0  0  0
    0.3530   49.7429  166.5624 C   0  0  2  0  0  0  0  0  0  0  0  0
    0.3619   48.6427  167.4723 O   0  0  0  0  0  0  0  0  0  0  0  0
   -1.7467   48.7277  165.5078 C   0  0  0  0  0  0  0  0  0  0  0  0
   -5.1855   53.3851  165.4193 H   0  0  0  0  0  0  0  0  0  0  0  0
   -6.9440   54.2480  164.0594 H   0  0  0  0  0  0  0  0  0  0  0  0
   -7.7203   53.8914  161.6616 H   0  0  0  0  0  0  0  0  0  0  0  0
   -4.6534   53.6193  160.6127 H   0  0  0  0  0  0  0  0  0  0  0  0
   -2.1275   53.4520  161.0460 H   0  0  0  0  0  0  0  0  0  0  0  0
   -2.6972   51.7786  161.0560 H   0  0  0  0  0  0  0  0  0  0  0  0
   -0.7792   53.1623  162.9639 H   0  0  0  0  0  0  0  0  0  0  0  0
   -0.5404   51.6852  162.0200 H   0  0  0  0  0  0  0  0  0  0  0  0
   -2.2613   50.5580  163.4411 H   0  0  0  0  0  0  0  0  0  0  0  0
   -2.1956   53.1916  165.0393 H   0  0  0  0  0  0  0  0  0  0  0  0
   -3.8968   50.7477  165.6801 H   0  0  0  0  0  0  0  0  0  0  0  0
   -3.7198   52.2081  166.6414 H   0  0  0  0  0  0  0  0  0  0  0  0
   -2.4209   50.3213  167.6059 H   0  0  0  0  0  0  0  0  0  0  0  0
   -1.4714   51.7564  167.2488 H   0  0  0  0  0  0  0  0  0  0  0  0
   -0.1301   51.8953  165.1547 H   0  0  0  0  0  0  0  0  0  0  0  0
    1.3447   50.8987  163.6486 H   0  0  0  0  0  0  0  0  0  0  0  0
    0.3252   49.4672  163.4220 H   0  0  0  0  0  0  0  0  0  0  0  0
    2.2957   49.9736  165.5820 H   0  0  0  0  0  0  0  0  0  0  0  0
    1.4708   48.4641  165.1636 H   0  0  0  0  0  0  0  0  0  0  0  0
    0.7126   50.6111  167.1198 H   0  0  0  0  0  0  0  0  0  0  0  0
    0.0427   49.0166  168.3208 H   0  0  0  0  0  0  0  0  0  0  0  0
   -2.6566   48.8947  164.9354 H   0  0  0  0  0  0  0  0  0  0  0  0
   -2.0259   48.1601  166.3978 H   0  0  0  0  0  0  0  0  0  0  0  0
   -1.0914   48.0986  164.9060 H   0  0  0  0  0  0  0  0  0  0  0  0
  1  2  2  0  0  0  0
  1 11  1  0  0  0  0
  2  3  1  0  0  0  0
  3  4  1  0  0  0  0
  3  5  2  0  0  0  0
  5  6  1  0  0  0  0
  6  7  1  0  0  0  0
  6 11  2  0  0  0  0
  7  8  1  0  0  0  0
  8  9  1  0  0  0  0
  9 10  1  0  0  0  0
  9 15  1  0  0  0  0
 10 11  1  0  0  0  0
 10 12  1  0  0  0  0
 12 13  1  0  0  0  0
 13 14  1  0  0  0  0
 14 15  1  0  0  0  0
 14 18  1  0  0  0  0
 14 20  1  0  0  0  0
 15 16  1  0  0  0  0
 16 17  1  0  0  0  0
 17 18  1  0  0  0  0
 18 19  1  0  0  0  0
  1 21  1  0  0  0  0
  2 22  1  0  0  0  0
  4 23  1  0  0  0  0
  5 24  1  0  0  0  0
  7 25  1  0  0  0  0
  7 26  1  0  0  0  0
  8 27  1  0  0  0  0
  8 28  1  0  0  0  0
  9 29  1  0  0  0  0
 10 30  1  0  0  0  0
 12 31  1  0  0  0  0
 12 32  1  0  0  0  0
 13 33  1  0  0  0  0
 13 34  1  0  0  0  0
 15 35  1  0  0  0  0
 16 36  1  0  0  0  0
 16 37  1  0  0  0  0
 17 38  1  0  0  0  0
 17 39  1  0  0  0  0
 18 40  1  0  0  0  0
 19 41  1  0  0  0  0
 20 42  1  0  0  0  0
 20 43  1  0  0  0  0
 20 44  1  0  0  0  0
M  END
$$$$
1qkt_751
  -OEChem-01202217033D

 44 47  0     1  0  0  0  0  0999 V2000
   -2.1147   49.4210  165.9168 C   0  0  0  0  0  0  0  0  0  0  0  0
   -0.9530   48.8418  166.4504 C   0  0  0  0  0  0  0  0  0  0  0  0
    0.2943   49.0818  165.8515 C   0  0  0  0  0  0  0  0  0  0  0  0
    1.4309   48.5349  166.3483 O   0  0  0  0  0  0  0  0  0  0  0  0
    0.3637   49.8839  164.7026 C   0  0  0  0  0  0  0  0  0  0  0  0
   -0.8025   50.4623  164.1473 C   0  0  0  0  0  0  0  0  0  0  0  0
   -0.6457   51.2440  162.8896 C   0  0  0  0  0  0  0  0  0  0  0  0
   -1.9669   51.6831  162.2097 C   0  0  0  0  0  0  0  0  0  0  0  0
   -3.0070   52.1161  163.2756 C   0  0  2  0  0  0  0  0  0  0  0  0
   -3.3208   50.8949  164.2227 C   0  0  1  0  0  0  0  0  0  0  0  0
   -2.0654   50.2818  164.7895 C   0  0  0  0  0  0  0  0  0  0  0  0
   -4.4169   51.2901  165.2775 C   0  0  0  0  0  0  0  0  0  0  0  0
   -5.6825   51.9648  164.6635 C   0  0  0  0  0  0  0  0  0  0  0  0
   -5.3369   53.1779  163.7383 C   0  0  1  0  0  0  0  0  0  0  0  0
   -4.3368   52.6528  162.6560 C   0  0  1  0  0  0  0  0  0  0  0  0
   -4.3199   53.7712  161.5910 C   0  0  0  0  0  0  0  0  0  0  0  0
   -5.7717   54.3151  161.5891 C   0  0  0  0  0  0  0  0  0  0  0  0
   -6.4931   53.6665  162.8032 C   0  0  2  0  0  0  0  0  0  0  0  0
   -7.4556   54.5578  163.3728 O   0  0  0  0  0  0  0  0  0  0  0  0
   -4.8205   54.3787  164.6190 C   0  0  0  0  0  0  0  0  0  0  0  0
   -2.9979   49.1981  166.3746 H   0  0  0  0  0  0  0  0  0  0  0  0
   -1.0220   48.2489  167.2797 H   0  0  0  0  0  0  0  0  0  0  0  0
    1.1461   47.8436  166.9795 H   0  0  0  0  0  0  0  0  0  0  0  0
    1.2750   50.0304  164.2587 H   0  0  0  0  0  0  0  0  0  0  0  0
   -0.0843   50.6457  162.1683 H   0  0  0  0  0  0  0  0  0  0  0  0
   -0.0504   52.1322  163.1194 H   0  0  0  0  0  0  0  0  0  0  0  0
   -2.3689   50.8578  161.6151 H   0  0  0  0  0  0  0  0  0  0  0  0
   -1.7491   52.5100  161.5294 H   0  0  0  0  0  0  0  0  0  0  0  0
   -2.5430   52.9168  163.8577 H   0  0  0  0  0  0  0  0  0  0  0  0
   -3.7652   50.1020  163.6117 H   0  0  0  0  0  0  0  0  0  0  0  0
   -3.9733   51.9440  166.0315 H   0  0  0  0  0  0  0  0  0  0  0  0
   -4.7760   50.3996  165.7967 H   0  0  0  0  0  0  0  0  0  0  0  0
   -6.3403   52.2842  165.4740 H   0  0  0  0  0  0  0  0  0  0  0  0
   -6.2270   51.2074  164.0906 H   0  0  0  0  0  0  0  0  0  0  0  0
   -4.7878   51.7878  162.1456 H   0  0  0  0  0  0  0  0  0  0  0  0
   -4.0433   53.3809  160.6069 H   0  0  0  0  0  0  0  0  0  0  0  0
   -3.6098   54.5549  161.8686 H   0  0  0  0  0  0  0  0  0  0  0  0
   -6.2841   54.0536  160.6601 H   0  0  0  0  0  0  0  0  0  0  0  0
   -5.7612   55.4031  161.6709 H   0  0  0  0  0  0  0  0  0  0  0  0
   -7.0568   52.7993  162.4431 H   0  0  0  0  0  0  0  0  0  0  0  0
   -8.1256   53.9858  163.8017 H   0  0  0  0  0  0  0  0  0  0  0  0
   -3.9445   54.1206  165.2118 H   0  0  0  0  0  0  0  0  0  0  0  0
   -5.5992   54.6962  165.3154 H   0  0  0  0  0  0  0  0  0  0  0  0
   -4.5485   55.2386  164.0098 H   0  0  0  0  0  0  0  0  0  0  0  0
  1  2  2  0  0  0  0
  1 11  1  0  0  0  0
  2  3  1  0  0  0  0
  3  4  1  0  0  0  0
  3  5  2  0  0  0  0
  5  6  1  0  0  0  0
  6  7  1  0  0  0  0
  6 11  2  0  0  0  0
  7  8  1  0  0  0  0
  8  9  1  0  0  0  0
  9 10  1  0  0  0  0
  9 15  1  0  0  0  0
 10 11  1  0  0  0  0
 10 12  1  0  0  0  0
 12 13  1  0  0  0  0
 13 14  1  0  0  0  0
 14 15  1  0  0  0  0
 14 18  1  0  0  0  0
 14 20  1  0  0  0  0
 15 16  1  0  0  0  0
 16 17  1  0  0  0  0
 17 18  1  0  0  0  0
 18 19  1  0  0  0  0
  1 21  1  0  0  0  0
  2 22  1  0  0  0  0
  4 23  1  0  0  0  0
  5 24  1  0  0  0  0
  7 25  1  0  0  0  0
  7 26  1  0  0  0  0
  8 27  1  0  0  0  0
  8 28  1  0  0  0  0
  9 29  1  0  0  0  0
 10 30  1  0  0  0  0
 12 31  1  0  0  0  0
 12 32  1  0  0  0  0
 13 33  1  0  0  0  0
 13 34  1  0  0  0  0
 15 35  1  0  0  0  0
 16 36  1  0  0  0  0
 16 37  1  0  0  0  0
 17 38  1  0  0  0  0
 17 39  1  0  0  0  0
 18 40  1  0  0  0  0
 19 41  1  0  0  0  0
 20 42  1  0  0  0  0
 20 43  1  0  0  0  0
 20 44  1  0  0  0  0
M  END
$$$$
1qkt_752
  -OEChem-01202217033D

 44 47  0     1  0  0  0  0  0999 V2000
    1.8991   50.2562  164.8165 C   0  0  0  0  0  0  0  0  0  0  0  0
    3.2343   50.6455  164.9810 C   0  0  0  0  0  0  0  0  0  0  0  0
    3.5653   51.9950  165.1330 C   0  0  0  0  0  0  0  0  0  0  0  0
    4.8610   52.3333  165.2945 O   0  0  0  0  0  0  0  0  0  0  0  0
    2.5545   52.9660  165.1303 C   0  0  0  0  0  0  0  0  0  0  0  0
    1.2005   52.5895  164.9673 C   0  0  0  0  0  0  0  0  0  0  0  0
    0.1906   53.6834  164.9236 C   0  0  0  0  0  0  0  0  0  0  0  0
   -1.2434   53.2436  164.5299 C   0  0  0  0  0  0  0  0  0  0  0  0
   -1.5961   51.8902  165.1944 C   0  0  2  0  0  0  0  0  0  0  0  0
   -0.5922   50.7831  164.6851 C   0  0  1  0  0  0  0  0  0  0  0  0
    0.8461   51.2081  164.8542 C   0  0  0  0  0  0  0  0  0  0  0  0
   -0.9678   49.3850  165.3006 C   0  0  0  0  0  0  0  0  0  0  0  0
   -2.4749   49.0031  165.1546 C   0  0  0  0  0  0  0  0  0  0  0  0
   -3.4350   50.1252  165.6631 C   0  0  1  0  0  0  0  0  0  0  0  0
   -3.0649   51.4398  164.9101 C   0  0  1  0  0  0  0  0  0  0  0  0
   -4.2607   52.3758  165.1988 C   0  0  0  0  0  0  0  0  0  0  0  0
   -5.4887   51.4232  165.2330 C   0  0  0  0  0  0  0  0  0  0  0  0
   -4.9239   49.9726  165.2177 C   0  0  2  0  0  0  0  0  0  0  0  0
   -5.6811   49.0473  166.0055 O   0  0  0  0  0  0  0  0  0  0  0  0
   -3.3487   50.2055  167.2292 C   0  0  0  0  0  0  0  0  0  0  0  0
    1.7195   49.2650  164.6516 H   0  0  0  0  0  0  0  0  0  0  0  0
    3.9754   49.9459  164.9616 H   0  0  0  0  0  0  0  0  0  0  0  0
    5.0974   52.8516  164.5022 H   0  0  0  0  0  0  0  0  0  0  0  0
    2.8166   53.9495  165.2464 H   0  0  0  0  0  0  0  0  0  0  0  0
    0.5221   54.4407  164.2100 H   0  0  0  0  0  0  0  0  0  0  0  0
    0.1607   54.1600  165.9073 H   0  0  0  0  0  0  0  0  0  0  0  0
   -1.3258   53.1484  163.4442 H   0  0  0  0  0  0  0  0  0  0  0  0
   -1.9451   54.0198  164.8413 H   0  0  0  0  0  0  0  0  0  0  0  0
   -1.4690   52.0298  166.2724 H   0  0  0  0  0  0  0  0  0  0  0  0
   -0.7277   50.6776  163.6025 H   0  0  0  0  0  0  0  0  0  0  0  0
   -0.6820   49.3687  166.3545 H   0  0  0  0  0  0  0  0  0  0  0  0
   -0.4043   48.5914  164.8055 H   0  0  0  0  0  0  0  0  0  0  0  0
   -2.6662   48.0689  165.6919 H   0  0  0  0  0  0  0  0  0  0  0  0
   -2.6778   48.8073  164.0989 H   0  0  0  0  0  0  0  0  0  0  0  0
   -3.1055   51.2483  163.8279 H   0  0  0  0  0  0  0  0  0  0  0  0
   -4.3661   53.1329  164.4156 H   0  0  0  0  0  0  0  0  0  0  0  0
   -4.1261   52.8850  166.1587 H   0  0  0  0  0  0  0  0  0  0  0  0
   -6.1328   51.5900  164.3644 H   0  0  0  0  0  0  0  0  0  0  0  0
   -6.0738   51.6056  166.1390 H   0  0  0  0  0  0  0  0  0  0  0  0
   -4.9505   49.5962  164.1882 H   0  0  0  0  0  0  0  0  0  0  0  0
   -6.4421   48.7826  165.4469 H   0  0  0  0  0  0  0  0  0  0  0  0
   -2.3482   50.4122  167.6018 H   0  0  0  0  0  0  0  0  0  0  0  0
   -3.6380   49.2381  167.6405 H   0  0  0  0  0  0  0  0  0  0  0  0
   -4.0115   50.9775  167.6267 H   0  0  0  0  0  0  0  0  0  0  0  0
  1  2  2  0  0  0  0
  1 11  1  0  0  0  0
  2  3  1  0  0  0  0
  3  4  1  0  0  0  0
  3  5  2  0  0  0  0
  5  6  1  0  0  0  0
  6  7  1  0  0  0  0
  6 11  2  0  0  0  0
  7  8  1  0  0  0  0
  8  9  1  0  0  0  0
  9 10  1  0  0  0  0
  9 15  1  0  0  0  0
 10 11  1  0  0  0  0
 10 12  1  0  0  0  0
 12 13  1  0  0  0  0
 13 14  1  0  0  0  0
 14 15  1  0  0  0  0
 14 18  1  0  0  0  0
 14 20  1  0  0  0  0
 15 16  1  0  0  0  0
 16 17  1  0  0  0  0
 17 18  1  0  0  0  0
 18 19  1  0  0  0  0
  1 21  1  0  0  0  0
  2 22  1  0  0  0  0
  4 23  1  0  0  0  0
  5 24  1  0  0  0  0
  7 25  1  0  0  0  0
  7 26  1  0  0  0  0
  8 27  1  0  0  0  0
  8 28  1  0  0  0  0
  9 29  1  0  0  0  0
 10 30  1  0  0  0  0
 12 31  1  0  0  0  0
 12 32  1  0  0  0  0
 13 33  1  0  0  0  0
 13 34  1  0  0  0  0
 15 35  1  0  0  0  0
 16 36  1  0  0  0  0
 16 37  1  0  0  0  0
 17 38  1  0  0  0  0
 17 39  1  0  0  0  0
 18 40  1  0  0  0  0
 19 41  1  0  0  0  0
 20 42  1  0  0  0  0
 20 43  1  0  0  0  0
 20 44  1  0  0  0  0
M  END
$$$$
1qkt_758
  -OEChem-01202217033D

 44 47  0     1  0  0  0  0  0999 V2000
   -2.8887   49.1457  165.7257 C   0  0  0  0  0  0  0  0  0  0  0  0
   -2.0209   48.4229  166.5648 C   0  0  0  0  0  0  0  0  0  0  0  0
   -0.6344   48.5425  166.4079 C   0  0  0  0  0  0  0  0  0  0  0  0
    0.2068   47.8532  167.2134 O   0  0  0  0  0  0  0  0  0  0  0  0
   -0.1175   49.3653  165.3956 C   0  0  0  0  0  0  0  0  0  0  0  0
   -0.9801   50.0883  164.5365 C   0  0  0  0  0  0  0  0  0  0  0  0
   -0.3418   50.9067  163.4676 C   0  0  0  0  0  0  0  0  0  0  0  0
   -1.3200   51.5122  162.4316 C   0  0  0  0  0  0  0  0  0  0  0  0
   -2.6112   52.0129  163.1297 C   0  0  2  0  0  0  0  0  0  0  0  0
   -3.3320   50.7904  163.8181 C   0  0  1  0  0  0  0  0  0  0  0  0
   -2.3947   50.0247  164.7250 C   0  0  0  0  0  0  0  0  0  0  0  0
   -4.6903   51.2490  164.4639 C   0  0  0  0  0  0  0  0  0  0  0  0
   -5.6054   52.0852  163.5149 C   0  0  0  0  0  0  0  0  0  0  0  0
   -4.8540   53.2988  162.8764 C   0  0  1  0  0  0  0  0  0  0  0  0
   -3.5933   52.7304  162.1492 C   0  0  1  0  0  0  0  0  0  0  0  0
   -3.1171   53.9024  161.2635 C   0  0  0  0  0  0  0  0  0  0  0  0
   -4.4309   54.5937  160.8153 C   0  0  0  0  0  0  0  0  0  0  0  0
   -5.5728   53.9731  161.6652 C   0  0  2  0  0  0  0  0  0  0  0  0
   -6.5775   54.9301  162.0039 O   0  0  0  0  0  0  0  0  0  0  0  0
   -4.5814   54.3866  163.9830 C   0  0  0  0  0  0  0  0  0  0  0  0
   -3.8889   49.0099  165.8658 H   0  0  0  0  0  0  0  0  0  0  0  0
   -2.4052   47.8092  167.2870 H   0  0  0  0  0  0  0  0  0  0  0  0
    0.4943   48.5057  167.8830 H   0  0  0  0  0  0  0  0  0  0  0  0
    0.8974   49.4259  165.2810 H   0  0  0  0  0  0  0  0  0  0  0  0
    0.3849   50.2957  162.9236 H   0  0  0  0  0  0  0  0  0  0  0  0
    0.2040   51.7209  163.9521 H   0  0  0  0  0  0  0  0  0  0  0  0
   -1.5737   50.7629  161.6789 H   0  0  0  0  0  0  0  0  0  0  0  0
   -0.8190   52.3336  161.9180 H   0  0  0  0  0  0  0  0  0  0  0  0
   -2.2981   52.7268  163.8962 H   0  0  0  0  0  0  0  0  0  0  0  0
   -3.6036   50.0794  163.0299 H   0  0  0  0  0  0  0  0  0  0  0  0
   -4.4825   51.8176  165.3731 H   0  0  0  0  0  0  0  0  0  0  0  0
   -5.2760   50.3755  164.7568 H   0  0  0  0  0  0  0  0  0  0  0  0
   -6.4804   52.4338  164.0703 H   0  0  0  0  0  0  0  0  0  0  0  0
   -5.9728   51.4209  162.7274 H   0  0  0  0  0  0  0  0  0  0  0  0
   -3.9152   51.9534  161.4397 H   0  0  0  0  0  0  0  0  0  0  0  0
   -2.5418   53.5455  160.4044 H   0  0  0  0  0  0  0  0  0  0  0  0
   -2.4942   54.5889  161.8410 H   0  0  0  0  0  0  0  0  0  0  0  0
   -4.6129   54.4247  159.7497 H   0  0  0  0  0  0  0  0  0  0  0  0
   -4.3632   55.6698  160.9857 H   0  0  0  0  0  0  0  0  0  0  0  0
   -6.0662   53.2112  161.0590 H   0  0  0  0  0  0  0  0  0  0  0  0
   -7.2397   54.4283  162.5249 H   0  0  0  0  0  0  0  0  0  0  0  0
   -3.9522   54.0186  164.7897 H   0  0  0  0  0  0  0  0  0  0  0  0
   -5.5232   54.7166  164.4283 H   0  0  0  0  0  0  0  0  0  0  0  0
   -4.0904   55.2645  163.5701 H   0  0  0  0  0  0  0  0  0  0  0  0
  1  2  2  0  0  0  0
  1 11  1  0  0  0  0
  2  3  1  0  0  0  0
  3  4  1  0  0  0  0
  3  5  2  0  0  0  0
  5  6  1  0  0  0  0
  6  7  1  0  0  0  0
  6 11  2  0  0  0  0
  7  8  1  0  0  0  0
  8  9  1  0  0  0  0
  9 10  1  0  0  0  0
  9 15  1  0  0  0  0
 10 11  1  0  0  0  0
 10 12  1  0  0  0  0
 12 13  1  0  0  0  0
 13 14  1  0  0  0  0
 14 15  1  0  0  0  0
 14 18  1  0  0  0  0
 14 20  1  0  0  0  0
 15 16  1  0  0  0  0
 16 17  1  0  0  0  0
 17 18  1  0  0  0  0
 18 19  1  0  0  0  0
  1 21  1  0  0  0  0
  2 22  1  0  0  0  0
  4 23  1  0  0  0  0
  5 24  1  0  0  0  0
  7 25  1  0  0  0  0
  7 26  1  0  0  0  0
  8 27  1  0  0  0  0
  8 28  1  0  0  0  0
  9 29  1  0  0  0  0
 10 30  1  0  0  0  0
 12 31  1  0  0  0  0
 12 32  1  0  0  0  0
 13 33  1  0  0  0  0
 13 34  1  0  0  0  0
 15 35  1  0  0  0  0
 16 36  1  0  0  0  0
 16 37  1  0  0  0  0
 17 38  1  0  0  0  0
 17 39  1  0  0  0  0
 18 40  1  0  0  0  0
 19 41  1  0  0  0  0
 20 42  1  0  0  0  0
 20 43  1  0  0  0  0
 20 44  1  0  0  0  0
M  END
$$$$
1qkt_762
  -OEChem-01202217033D

 44 47  0     1  0  0  0  0  0999 V2000
   -2.6010   49.2139  165.7308 C   0  0  0  0  0  0  0  0  0  0  0  0
   -1.7783   48.6061  166.6932 C   0  0  0  0  0  0  0  0  0  0  0  0
   -0.3938   48.8228  166.6665 C   0  0  0  0  0  0  0  0  0  0  0  0
    0.4068   48.2510  167.5926 O   0  0  0  0  0  0  0  0  0  0  0  0
    0.1662   49.6362  165.6712 C   0  0  0  0  0  0  0  0  0  0  0  0
   -0.6514   50.2440  164.6901 C   0  0  0  0  0  0  0  0  0  0  0  0
    0.0335   51.0563  163.6474 C   0  0  0  0  0  0  0  0  0  0  0  0
   -0.8735   51.5286  162.4869 C   0  0  0  0  0  0  0  0  0  0  0  0
   -2.2632   51.9619  163.0198 C   0  0  2  0  0  0  0  0  0  0  0  0
   -2.9599   50.7207  163.6989 C   0  0  1  0  0  0  0  0  0  0  0  0
   -2.0705   50.0795  164.7381 C   0  0  0  0  0  0  0  0  0  0  0  0
   -4.4093   51.1001  164.1759 C   0  0  0  0  0  0  0  0  0  0  0  0
   -5.2778   51.8132  163.0921 C   0  0  0  0  0  0  0  0  0  0  0  0
   -4.5543   53.0495  162.4664 C   0  0  1  0  0  0  0  0  0  0  0  0
   -3.1874   52.5446  161.9037 C   0  0  1  0  0  0  0  0  0  0  0  0
   -2.7123   53.7056  161.0059 C   0  0  0  0  0  0  0  0  0  0  0  0
   -4.0135   54.2741  160.3862 C   0  0  0  0  0  0  0  0  0  0  0  0
   -5.1857   53.6062  161.1513 C   0  0  2  0  0  0  0  0  0  0  0  0
   -6.2904   54.4950  161.3324 O   0  0  0  0  0  0  0  0  0  0  0  0
   -4.4823   54.2076  163.5320 C   0  0  0  0  0  0  0  0  0  0  0  0
   -3.5980   49.0081  165.7761 H   0  0  0  0  0  0  0  0  0  0  0  0
   -2.1923   48.0010  167.4069 H   0  0  0  0  0  0  0  0  0  0  0  0
    0.7022   47.4075  167.1927 H   0  0  0  0  0  0  0  0  0  0  0  0
    1.1812   49.7712  165.6586 H   0  0  0  0  0  0  0  0  0  0  0  0
    0.8547   50.4781  163.2128 H   0  0  0  0  0  0  0  0  0  0  0  0
    0.4636   51.9356  164.1362 H   0  0  0  0  0  0  0  0  0  0  0  0
   -0.9899   50.7280  161.7558 H   0  0  0  0  0  0  0  0  0  0  0  0
   -0.3797   52.3542  161.9795 H   0  0  0  0  0  0  0  0  0  0  0  0
   -2.0861   52.7367  163.7706 H   0  0  0  0  0  0  0  0  0  0  0  0
   -3.0917   49.9510  162.9296 H   0  0  0  0  0  0  0  0  0  0  0  0
   -4.3432   51.7260  165.0685 H   0  0  0  0  0  0  0  0  0  0  0  0
   -4.9564   50.1979  164.4550 H   0  0  0  0  0  0  0  0  0  0  0  0
   -6.2306   52.1188  163.5333 H   0  0  0  0  0  0  0  0  0  0  0  0
   -5.5085   51.0850  162.3088 H   0  0  0  0  0  0  0  0  0  0  0  0
   -3.3715   51.7090  161.2119 H   0  0  0  0  0  0  0  0  0  0  0  0
   -2.0228   53.3580  160.2307 H   0  0  0  0  0  0  0  0  0  0  0  0
   -2.2173   54.4666  161.6112 H   0  0  0  0  0  0  0  0  0  0  0  0
   -4.0705   54.0376  159.3190 H   0  0  0  0  0  0  0  0  0  0  0  0
   -4.0423   55.3604  160.5030 H   0  0  0  0  0  0  0  0  0  0  0  0
   -5.5411   52.7761  160.5390 H   0  0  0  0  0  0  0  0  0  0  0  0
   -6.9715   53.9670  161.8009 H   0  0  0  0  0  0  0  0  0  0  0  0
   -3.9174   53.9312  164.4194 H   0  0  0  0  0  0  0  0  0  0  0  0
   -5.4878   54.4841  163.8583 H   0  0  0  0  0  0  0  0  0  0  0  0
   -4.0161   55.0989  163.1195 H   0  0  0  0  0  0  0  0  0  0  0  0
  1  2  2  0  0  0  0
  1 11  1  0  0  0  0
  2  3  1  0  0  0  0
  3  4  1  0  0  0  0
  3  5  2  0  0  0  0
  5  6  1  0  0  0  0
  6  7  1  0  0  0  0
  6 11  2  0  0  0  0
  7  8  1  0  0  0  0
  8  9  1  0  0  0  0
  9 10  1  0  0  0  0
  9 15  1  0  0  0  0
 10 11  1  0  0  0  0
 10 12  1  0  0  0  0
 12 13  1  0  0  0  0
 13 14  1  0  0  0  0
 14 15  1  0  0  0  0
 14 18  1  0  0  0  0
 14 20  1  0  0  0  0
 15 16  1  0  0  0  0
 16 17  1  0  0  0  0
 17 18  1  0  0  0  0
 18 19  1  0  0  0  0
  1 21  1  0  0  0  0
  2 22  1  0  0  0  0
  4 23  1  0  0  0  0
  5 24  1  0  0  0  0
  7 25  1  0  0  0  0
  7 26  1  0  0  0  0
  8 27  1  0  0  0  0
  8 28  1  0  0  0  0
  9 29  1  0  0  0  0
 10 30  1  0  0  0  0
 12 31  1  0  0  0  0
 12 32  1  0  0  0  0
 13 33  1  0  0  0  0
 13 34  1  0  0  0  0
 15 35  1  0  0  0  0
 16 36  1  0  0  0  0
 16 37  1  0  0  0  0
 17 38  1  0  0  0  0
 17 39  1  0  0  0  0
 18 40  1  0  0  0  0
 19 41  1  0  0  0  0
 20 42  1  0  0  0  0
 20 43  1  0  0  0  0
 20 44  1  0  0  0  0
M  END
$$$$
1qkt_765
  -OEChem-01202217033D

 44 47  0     1  0  0  0  0  0999 V2000
   -4.6435   52.3700  162.7315 C   0  0  0  0  0  0  0  0  0  0  0  0
   -5.9706   52.8423  162.7424 C   0  0  0  0  0  0  0  0  0  0  0  0
   -6.8503   52.4444  163.7607 C   0  0  0  0  0  0  0  0  0  0  0  0
   -8.1504   52.8390  163.7708 O   0  0  0  0  0  0  0  0  0  0  0  0
   -6.3880   51.5949  164.7789 C   0  0  0  0  0  0  0  0  0  0  0  0
   -5.0583   51.1163  164.7826 C   0  0  0  0  0  0  0  0  0  0  0  0
   -4.6696   50.1899  165.8810 C   0  0  0  0  0  0  0  0  0  0  0  0
   -3.2814   49.5255  165.7221 C   0  0  0  0  0  0  0  0  0  0  0  0
   -2.2593   50.5501  165.1701 C   0  0  2  0  0  0  0  0  0  0  0  0
   -2.7234   51.0334  163.7436 C   0  0  1  0  0  0  0  0  0  0  0  0
   -4.1454   51.5406  163.7671 C   0  0  0  0  0  0  0  0  0  0  0  0
   -1.6628   52.0047  163.1093 C   0  0  0  0  0  0  0  0  0  0  0  0
   -0.1981   51.4754  163.1671 C   0  0  0  0  0  0  0  0  0  0  0  0
    0.2212   51.0334  164.6056 C   0  0  1  0  0  0  0  0  0  0  0  0
   -0.8147   49.9707  165.0928 C   0  0  1  0  0  0  0  0  0  0  0  0
   -0.1414   49.3290  166.3220 C   0  0  0  0  0  0  0  0  0  0  0  0
    1.3623   49.3240  165.9497 C   0  0  0  0  0  0  0  0  0  0  0  0
    1.5310   50.1877  164.6739 C   0  0  2  0  0  0  0  0  0  0  0  0
    2.7407   50.9473  164.7427 O   0  0  0  0  0  0  0  0  0  0  0  0
    0.3894   52.3138  165.5081 C   0  0  0  0  0  0  0  0  0  0  0  0
   -4.0596   52.6457  161.9433 H   0  0  0  0  0  0  0  0  0  0  0  0
   -6.2910   53.4647  161.9966 H   0  0  0  0  0  0  0  0  0  0  0  0
   -8.2994   53.3015  162.9211 H   0  0  0  0  0  0  0  0  0  0  0  0
   -7.0378   51.3091  165.5156 H   0  0  0  0  0  0  0  0  0  0  0  0
   -5.4140   49.3927  165.9652 H   0  0  0  0  0  0  0  0  0  0  0  0
   -4.6832   50.7580  166.8159 H   0  0  0  0  0  0  0  0  0  0  0  0
   -3.3572   48.6728  165.0390 H   0  0  0  0  0  0  0  0  0  0  0  0
   -2.9636   49.1461  166.6978 H   0  0  0  0  0  0  0  0  0  0  0  0
   -2.2589   51.3997  165.8606 H   0  0  0  0  0  0  0  0  0  0  0  0
   -2.7502   50.1556  163.0876 H   0  0  0  0  0  0  0  0  0  0  0  0
   -1.7249   52.9772  163.6043 H   0  0  0  0  0  0  0  0  0  0  0  0
   -1.8806   52.1630  162.0520 H   0  0  0  0  0  0  0  0  0  0  0  0
    0.4762   52.2537  162.8043 H   0  0  0  0  0  0  0  0  0  0  0  0
   -0.1158   50.6270  162.4811 H   0  0  0  0  0  0  0  0  0  0  0  0
   -0.8690   49.1607  164.3528 H   0  0  0  0  0  0  0  0  0  0  0  0
   -0.5141   48.3170  166.5002 H   0  0  0  0  0  0  0  0  0  0  0  0
   -0.3194   49.9290  167.2183 H   0  0  0  0  0  0  0  0  0  0  0  0
    1.7158   48.3065  165.7759 H   0  0  0  0  0  0  0  0  0  0  0  0
    1.9393   49.7532  166.7675 H   0  0  0  0  0  0  0  0  0  0  0  0
    1.6010   49.5283  163.8027 H   0  0  0  0  0  0  0  0  0  0  0  0
    2.6106   51.7051  164.1375 H   0  0  0  0  0  0  0  0  0  0  0  0
   -0.5384   52.8670  165.6381 H   0  0  0  0  0  0  0  0  0  0  0  0
    1.1157   52.9992  165.0651 H   0  0  0  0  0  0  0  0  0  0  0  0
    0.7558   52.0496  166.4977 H   0  0  0  0  0  0  0  0  0  0  0  0
  1  2  2  0  0  0  0
  1 11  1  0  0  0  0
  2  3  1  0  0  0  0
  3  4  1  0  0  0  0
  3  5  2  0  0  0  0
  5  6  1  0  0  0  0
  6  7  1  0  0  0  0
  6 11  2  0  0  0  0
  7  8  1  0  0  0  0
  8  9  1  0  0  0  0
  9 10  1  0  0  0  0
  9 15  1  0  0  0  0
 10 11  1  0  0  0  0
 10 12  1  0  0  0  0
 12 13  1  0  0  0  0
 13 14  1  0  0  0  0
 14 15  1  0  0  0  0
 14 18  1  0  0  0  0
 14 20  1  0  0  0  0
 15 16  1  0  0  0  0
 16 17  1  0  0  0  0
 17 18  1  0  0  0  0
 18 19  1  0  0  0  0
  1 21  1  0  0  0  0
  2 22  1  0  0  0  0
  4 23  1  0  0  0  0
  5 24  1  0  0  0  0
  7 25  1  0  0  0  0
  7 26  1  0  0  0  0
  8 27  1  0  0  0  0
  8 28  1  0  0  0  0
  9 29  1  0  0  0  0
 10 30  1  0  0  0  0
 12 31  1  0  0  0  0
 12 32  1  0  0  0  0
 13 33  1  0  0  0  0
 13 34  1  0  0  0  0
 15 35  1  0  0  0  0
 16 36  1  0  0  0  0
 16 37  1  0  0  0  0
 17 38  1  0  0  0  0
 17 39  1  0  0  0  0
 18 40  1  0  0  0  0
 19 41  1  0  0  0  0
 20 42  1  0  0  0  0
 20 43  1  0  0  0  0
 20 44  1  0  0  0  0
M  END
$$$$
1qkt_766
  -OEChem-01202217033D

 44 47  0     1  0  0  0  0  0999 V2000
   -4.4026   49.6926  165.5447 C   0  0  0  0  0  0  0  0  0  0  0  0
   -5.7303   49.5788  165.1157 C   0  0  0  0  0  0  0  0  0  0  0  0
   -6.2557   50.5134  164.2110 C   0  0  0  0  0  0  0  0  0  0  0  0
   -7.5271   50.4234  163.7795 O   0  0  0  0  0  0  0  0  0  0  0  0
   -5.4539   51.5671  163.7513 C   0  0  0  0  0  0  0  0  0  0  0  0
   -4.1195   51.7074  164.1981 C   0  0  0  0  0  0  0  0  0  0  0  0
   -3.3568   52.8841  163.6899 C   0  0  0  0  0  0  0  0  0  0  0  0
   -1.9967   53.1190  164.3871 C   0  0  0  0  0  0  0  0  0  0  0  0
   -1.2719   51.7641  164.6112 C   0  0  2  0  0  0  0  0  0  0  0  0
   -2.1385   50.8675  165.5768 C   0  0  1  0  0  0  0  0  0  0  0  0
   -3.5528   50.7342  165.0773 C   0  0  0  0  0  0  0  0  0  0  0  0
   -1.3971   49.5229  165.9240 C   0  0  0  0  0  0  0  0  0  0  0  0
    0.1027   49.6844  166.3319 C   0  0  0  0  0  0  0  0  0  0  0  0
    0.9048   50.5740  165.3311 C   0  0  1  0  0  0  0  0  0  0  0  0
    0.1637   51.9360  165.1986 C   0  0  1  0  0  0  0  0  0  0  0  0
    1.1876   52.8642  164.5016 C   0  0  0  0  0  0  0  0  0  0  0  0
    2.5580   52.3976  165.0482 C   0  0  0  0  0  0  0  0  0  0  0  0
    2.2881   51.0850  165.8353 C   0  0  2  0  0  0  0  0  0  0  0  0
    3.3629   50.1537  165.6883 O   0  0  0  0  0  0  0  0  0  0  0  0
    1.0954   49.7820  163.9875 C   0  0  0  0  0  0  0  0  0  0  0  0
   -4.0692   48.9946  166.2071 H   0  0  0  0  0  0  0  0  0  0  0  0
   -6.3194   48.8160  165.4621 H   0  0  0  0  0  0  0  0  0  0  0  0
   -7.9729   49.8039  164.4100 H   0  0  0  0  0  0  0  0  0  0  0  0
   -5.8558   52.2512  163.0997 H   0  0  0  0  0  0  0  0  0  0  0  0
   -3.9527   53.7913  163.8154 H   0  0  0  0  0  0  0  0  0  0  0  0
   -3.1836   52.7407  162.6194 H   0  0  0  0  0  0  0  0  0  0  0  0
   -2.1609   53.6170  165.3472 H   0  0  0  0  0  0  0  0  0  0  0  0
   -1.3955   53.7836  163.7643 H   0  0  0  0  0  0  0  0  0  0  0  0
   -1.1994   51.2819  163.6323 H   0  0  0  0  0  0  0  0  0  0  0  0
   -2.2249   51.4041  166.5318 H   0  0  0  0  0  0  0  0  0  0  0  0
   -1.4781   48.8361  165.0799 H   0  0  0  0  0  0  0  0  0  0  0  0
   -1.8915   49.0386  166.7719 H   0  0  0  0  0  0  0  0  0  0  0  0
    0.5620   48.6939  166.4103 H   0  0  0  0  0  0  0  0  0  0  0  0
    0.1363   50.1216  167.3321 H   0  0  0  0  0  0  0  0  0  0  0  0
    0.0239   52.3737  166.1980 H   0  0  0  0  0  0  0  0  0  0  0  0
    1.0064   53.9177  164.7377 H   0  0  0  0  0  0  0  0  0  0  0  0
    1.1438   52.7395  163.4171 H   0  0  0  0  0  0  0  0  0  0  0  0
    2.9928   53.1546  165.7094 H   0  0  0  0  0  0  0  0  0  0  0  0
    3.2535   52.2218  164.2207 H   0  0  0  0  0  0  0  0  0  0  0  0
    2.2223   51.3320  166.9015 H   0  0  0  0  0  0  0  0  0  0  0  0
    2.9837   49.2813  165.9535 H   0  0  0  0  0  0  0  0  0  0  0  0
    0.1498   49.4523  163.5691 H   0  0  0  0  0  0  0  0  0  0  0  0
    1.7012   48.8836  164.1436 H   0  0  0  0  0  0  0  0  0  0  0  0
    1.5770   50.3925  163.2242 H   0  0  0  0  0  0  0  0  0  0  0  0
  1  2  2  0  0  0  0
  1 11  1  0  0  0  0
  2  3  1  0  0  0  0
  3  4  1  0  0  0  0
  3  5  2  0  0  0  0
  5  6  1  0  0  0  0
  6  7  1  0  0  0  0
  6 11  2  0  0  0  0
  7  8  1  0  0  0  0
  8  9  1  0  0  0  0
  9 10  1  0  0  0  0
  9 15  1  0  0  0  0
 10 11  1  0  0  0  0
 10 12  1  0  0  0  0
 12 13  1  0  0  0  0
 13 14  1  0  0  0  0
 14 15  1  0  0  0  0
 14 18  1  0  0  0  0
 14 20  1  0  0  0  0
 15 16  1  0  0  0  0
 16 17  1  0  0  0  0
 17 18  1  0  0  0  0
 18 19  1  0  0  0  0
  1 21  1  0  0  0  0
  2 22  1  0  0  0  0
  4 23  1  0  0  0  0
  5 24  1  0  0  0  0
  7 25  1  0  0  0  0
  7 26  1  0  0  0  0
  8 27  1  0  0  0  0
  8 28  1  0  0  0  0
  9 29  1  0  0  0  0
 10 30  1  0  0  0  0
 12 31  1  0  0  0  0
 12 32  1  0  0  0  0
 13 33  1  0  0  0  0
 13 34  1  0  0  0  0
 15 35  1  0  0  0  0
 16 36  1  0  0  0  0
 16 37  1  0  0  0  0
 17 38  1  0  0  0  0
 17 39  1  0  0  0  0
 18 40  1  0  0  0  0
 19 41  1  0  0  0  0
 20 42  1  0  0  0  0
 20 43  1  0  0  0  0
 20 44  1  0  0  0  0
M  END
$$$$
1qkt_770
  -OEChem-01202217033D

 44 47  0     1  0  0  0  0  0999 V2000
    1.3950   50.1592  165.9776 C   0  0  0  0  0  0  0  0  0  0  0  0
    2.6751   50.7439  165.9943 C   0  0  0  0  0  0  0  0  0  0  0  0
    2.9867   51.7966  165.1288 C   0  0  0  0  0  0  0  0  0  0  0  0
    4.2399   52.3110  165.1695 O   0  0  0  0  0  0  0  0  0  0  0  0
    2.0061   52.2611  164.2327 C   0  0  0  0  0  0  0  0  0  0  0  0
    0.7217   51.6633  164.1796 C   0  0  0  0  0  0  0  0  0  0  0  0
   -0.2336   52.1881  163.1698 C   0  0  0  0  0  0  0  0  0  0  0  0
   -1.5288   51.3692  162.9875 C   0  0  0  0  0  0  0  0  0  0  0  0
   -2.0526   50.9056  164.3667 C   0  0  2  0  0  0  0  0  0  0  0  0
   -0.9813   49.9824  165.0696 C   0  0  1  0  0  0  0  0  0  0  0  0
    0.3817   50.6259  165.1027 C   0  0  0  0  0  0  0  0  0  0  0  0
   -1.5175   49.4583  166.4513 C   0  0  0  0  0  0  0  0  0  0  0  0
   -2.9561   48.8574  166.3881 C   0  0  0  0  0  0  0  0  0  0  0  0
   -3.9781   49.8157  165.6991 C   0  0  1  0  0  0  0  0  0  0  0  0
   -3.4246   50.1594  164.2838 C   0  0  1  0  0  0  0  0  0  0  0  0
   -4.6393   50.7816  163.5600 C   0  0  0  0  0  0  0  0  0  0  0  0
   -5.8578   49.9956  164.1149 C   0  0  0  0  0  0  0  0  0  0  0  0
   -5.3266   49.1370  165.2957 C   0  0  2  0  0  0  0  0  0  0  0  0
   -6.2650   48.9981  166.3631 O   0  0  0  0  0  0  0  0  0  0  0  0
   -4.2531   51.0672  166.6204 C   0  0  0  0  0  0  0  0  0  0  0  0
    1.2286   49.3791  166.6131 H   0  0  0  0  0  0  0  0  0  0  0  0
    3.3860   50.3902  166.6376 H   0  0  0  0  0  0  0  0  0  0  0  0
    4.3404   52.8308  164.3449 H   0  0  0  0  0  0  0  0  0  0  0  0
    2.2385   53.0303  163.6024 H   0  0  0  0  0  0  0  0  0  0  0  0
    0.2530   52.2463  162.1944 H   0  0  0  0  0  0  0  0  0  0  0  0
   -0.5040   53.2009  163.4753 H   0  0  0  0  0  0  0  0  0  0  0  0
   -1.3251   50.5068  162.3518 H   0  0  0  0  0  0  0  0  0  0  0  0
   -2.2686   51.9916  162.4814 H   0  0  0  0  0  0  0  0  0  0  0  0
   -2.1826   51.8142  164.9569 H   0  0  0  0  0  0  0  0  0  0  0  0
   -0.8509   49.0850  164.4538 H   0  0  0  0  0  0  0  0  0  0  0  0
   -1.4889   50.2655  167.1863 H   0  0  0  0  0  0  0  0  0  0  0  0
   -0.8742   48.6584  166.8252 H   0  0  0  0  0  0  0  0  0  0  0  0
   -3.2833   48.6168  167.4021 H   0  0  0  0  0  0  0  0  0  0  0  0
   -2.9058   47.9105  165.8403 H   0  0  0  0  0  0  0  0  0  0  0  0
   -3.2141   49.2272  163.7380 H   0  0  0  0  0  0  0  0  0  0  0  0
   -4.5600   50.6798  162.4731 H   0  0  0  0  0  0  0  0  0  0  0  0
   -4.7216   51.8429  163.8033 H   0  0  0  0  0  0  0  0  0  0  0  0
   -6.2891   49.3485  163.3461 H   0  0  0  0  0  0  0  0  0  0  0  0
   -6.6336   50.6875  164.4538 H   0  0  0  0  0  0  0  0  0  0  0  0
   -5.1291   48.1268  164.9218 H   0  0  0  0  0  0  0  0  0  0  0  0
   -7.0450   48.5560  165.9673 H   0  0  0  0  0  0  0  0  0  0  0  0
   -3.3497   51.6333  166.8430 H   0  0  0  0  0  0  0  0  0  0  0  0
   -4.6604   50.7512  167.5761 H   0  0  0  0  0  0  0  0  0  0  0  0
   -4.9709   51.7570  166.1776 H   0  0  0  0  0  0  0  0  0  0  0  0
  1  2  2  0  0  0  0
  1 11  1  0  0  0  0
  2  3  1  0  0  0  0
  3  4  1  0  0  0  0
  3  5  2  0  0  0  0
  5  6  1  0  0  0  0
  6  7  1  0  0  0  0
  6 11  2  0  0  0  0
  7  8  1  0  0  0  0
  8  9  1  0  0  0  0
  9 10  1  0  0  0  0
  9 15  1  0  0  0  0
 10 11  1  0  0  0  0
 10 12  1  0  0  0  0
 12 13  1  0  0  0  0
 13 14  1  0  0  0  0
 14 15  1  0  0  0  0
 14 18  1  0  0  0  0
 14 20  1  0  0  0  0
 15 16  1  0  0  0  0
 16 17  1  0  0  0  0
 17 18  1  0  0  0  0
 18 19  1  0  0  0  0
  1 21  1  0  0  0  0
  2 22  1  0  0  0  0
  4 23  1  0  0  0  0
  5 24  1  0  0  0  0
  7 25  1  0  0  0  0
  7 26  1  0  0  0  0
  8 27  1  0  0  0  0
  8 28  1  0  0  0  0
  9 29  1  0  0  0  0
 10 30  1  0  0  0  0
 12 31  1  0  0  0  0
 12 32  1  0  0  0  0
 13 33  1  0  0  0  0
 13 34  1  0  0  0  0
 15 35  1  0  0  0  0
 16 36  1  0  0  0  0
 16 37  1  0  0  0  0
 17 38  1  0  0  0  0
 17 39  1  0  0  0  0
 18 40  1  0  0  0  0
 19 41  1  0  0  0  0
 20 42  1  0  0  0  0
 20 43  1  0  0  0  0
 20 44  1  0  0  0  0
M  END
$$$$
1qkt_774
  -OEChem-01202217033D

 44 47  0     1  0  0  0  0  0999 V2000
   -0.6226   50.2229  166.0419 C   0  0  0  0  0  0  0  0  0  0  0  0
   -0.3986   49.5286  167.2440 C   0  0  0  0  0  0  0  0  0  0  0  0
   -1.2913   49.6808  168.3157 C   0  0  0  0  0  0  0  0  0  0  0  0
   -1.0915   49.0516  169.4976 O   0  0  0  0  0  0  0  0  0  0  0  0
   -2.3907   50.5416  168.1825 C   0  0  0  0  0  0  0  0  0  0  0  0
   -2.6319   51.2417  166.9802 C   0  0  0  0  0  0  0  0  0  0  0  0
   -3.8272   52.1303  166.9418 C   0  0  0  0  0  0  0  0  0  0  0  0
   -3.9295   53.0444  165.6987 C   0  0  0  0  0  0  0  0  0  0  0  0
   -3.4992   52.2676  164.4307 C   0  0  2  0  0  0  0  0  0  0  0  0
   -1.9959   51.8143  164.5804 C   0  0  1  0  0  0  0  0  0  0  0  0
   -1.7612   51.0562  165.8635 C   0  0  0  0  0  0  0  0  0  0  0  0
   -1.5118   51.0907  163.2743 C   0  0  0  0  0  0  0  0  0  0  0  0
   -1.8242   51.8659  161.9588 C   0  0  0  0  0  0  0  0  0  0  0  0
   -3.3245   52.2839  161.8450 C   0  0  1  0  0  0  0  0  0  0  0  0
   -3.6735   53.1040  163.1255 C   0  0  1  0  0  0  0  0  0  0  0  0
   -5.0252   53.7653  162.7830 C   0  0  0  0  0  0  0  0  0  0  0  0
   -4.9115   54.0890  161.2708 C   0  0  0  0  0  0  0  0  0  0  0  0
   -3.6376   53.3617  160.7569 C   0  0  2  0  0  0  0  0  0  0  0  0
   -3.8049   52.8481  159.4357 O   0  0  0  0  0  0  0  0  0  0  0  0
   -4.1997   50.9966  161.6010 C   0  0  0  0  0  0  0  0  0  0  0  0
    0.0714   50.1093  165.3039 H   0  0  0  0  0  0  0  0  0  0  0  0
    0.4246   48.9278  167.3437 H   0  0  0  0  0  0  0  0  0  0  0  0
   -0.1296   49.1248  169.6708 H   0  0  0  0  0  0  0  0  0  0  0  0
   -3.0077   50.6750  168.9843 H   0  0  0  0  0  0  0  0  0  0  0  0
   -3.8359   52.7734  167.8234 H   0  0  0  0  0  0  0  0  0  0  0  0
   -4.7185   51.4980  166.9888 H   0  0  0  0  0  0  0  0  0  0  0  0
   -3.2853   53.9171  165.8258 H   0  0  0  0  0  0  0  0  0  0  0  0
   -4.9599   53.3991  165.6078 H   0  0  0  0  0  0  0  0  0  0  0  0
   -4.1416   51.3849  164.3727 H   0  0  0  0  0  0  0  0  0  0  0  0
   -1.3816   52.7181  164.6672 H   0  0  0  0  0  0  0  0  0  0  0  0
   -1.9626   50.0980  163.2351 H   0  0  0  0  0  0  0  0  0  0  0  0
   -0.4290   50.9571  163.2958 H   0  0  0  0  0  0  0  0  0  0  0  0
   -1.5431   51.2475  161.1052 H   0  0  0  0  0  0  0  0  0  0  0  0
   -1.1922   52.7554  161.9346 H   0  0  0  0  0  0  0  0  0  0  0  0
   -2.9640   53.9402  163.2190 H   0  0  0  0  0  0  0  0  0  0  0  0
   -5.1854   54.6706  163.3732 H   0  0  0  0  0  0  0  0  0  0  0  0
   -5.8498   53.0740  162.9741 H   0  0  0  0  0  0  0  0  0  0  0  0
   -4.8239   55.1680  161.1120 H   0  0  0  0  0  0  0  0  0  0  0  0
   -5.8012   53.7375  160.7423 H   0  0  0  0  0  0  0  0  0  0  0  0
   -2.8179   54.0874  160.7120 H   0  0  0  0  0  0  0  0  0  0  0  0
   -3.9728   53.6321  158.8705 H   0  0  0  0  0  0  0  0  0  0  0  0
   -4.1222   50.2730  162.4094 H   0  0  0  0  0  0  0  0  0  0  0  0
   -3.8767   50.4883  160.6931 H   0  0  0  0  0  0  0  0  0  0  0  0
   -5.2536   51.2401  161.4877 H   0  0  0  0  0  0  0  0  0  0  0  0
  1  2  2  0  0  0  0
  1 11  1  0  0  0  0
  2  3  1  0  0  0  0
  3  4  1  0  0  0  0
  3  5  2  0  0  0  0
  5  6  1  0  0  0  0
  6  7  1  0  0  0  0
  6 11  2  0  0  0  0
  7  8  1  0  0  0  0
  8  9  1  0  0  0  0
  9 10  1  0  0  0  0
  9 15  1  0  0  0  0
 10 11  1  0  0  0  0
 10 12  1  0  0  0  0
 12 13  1  0  0  0  0
 13 14  1  0  0  0  0
 14 15  1  0  0  0  0
 14 18  1  0  0  0  0
 14 20  1  0  0  0  0
 15 16  1  0  0  0  0
 16 17  1  0  0  0  0
 17 18  1  0  0  0  0
 18 19  1  0  0  0  0
  1 21  1  0  0  0  0
  2 22  1  0  0  0  0
  4 23  1  0  0  0  0
  5 24  1  0  0  0  0
  7 25  1  0  0  0  0
  7 26  1  0  0  0  0
  8 27  1  0  0  0  0
  8 28  1  0  0  0  0
  9 29  1  0  0  0  0
 10 30  1  0  0  0  0
 12 31  1  0  0  0  0
 12 32  1  0  0  0  0
 13 33  1  0  0  0  0
 13 34  1  0  0  0  0
 15 35  1  0  0  0  0
 16 36  1  0  0  0  0
 16 37  1  0  0  0  0
 17 38  1  0  0  0  0
 17 39  1  0  0  0  0
 18 40  1  0  0  0  0
 19 41  1  0  0  0  0
 20 42  1  0  0  0  0
 20 43  1  0  0  0  0
 20 44  1  0  0  0  0
M  END
$$$$
1qkt_775
  -OEChem-01202217033D

 44 47  0     1  0  0  0  0  0999 V2000
   -4.2649   50.6902  163.9110 C   0  0  0  0  0  0  0  0  0  0  0  0
   -5.5283   50.1449  164.1774 C   0  0  0  0  0  0  0  0  0  0  0  0
   -5.6664   49.1542  165.1614 C   0  0  0  0  0  0  0  0  0  0  0  0
   -6.8743   48.6136  165.4299 O   0  0  0  0  0  0  0  0  0  0  0  0
   -4.5385   48.6890  165.8463 C   0  0  0  0  0  0  0  0  0  0  0  0
   -3.2570   49.2221  165.5805 C   0  0  0  0  0  0  0  0  0  0  0  0
   -2.1145   48.6480  166.3389 C   0  0  0  0  0  0  0  0  0  0  0  0
   -0.7111   49.0758  165.8424 C   0  0  0  0  0  0  0  0  0  0  0  0
   -0.7162   50.5879  165.5013 C   0  0  2  0  0  0  0  0  0  0  0  0
   -1.7514   50.8633  164.3424 C   0  0  1  0  0  0  0  0  0  0  0  0
   -3.1097   50.2810  164.6336 C   0  0  0  0  0  0  0  0  0  0  0  0
   -1.7565   52.3836  163.9602 C   0  0  0  0  0  0  0  0  0  0  0  0
   -0.3365   52.9670  163.7161 C   0  0  0  0  0  0  0  0  0  0  0  0
    0.6634   52.6943  164.8809 C   0  0  1  0  0  0  0  0  0  0  0  0
    0.6874   51.1487  165.1049 C   0  0  1  0  0  0  0  0  0  0  0  0
    1.9251   50.9186  165.9950 C   0  0  0  0  0  0  0  0  0  0  0  0
    2.9445   51.9827  165.5155 C   0  0  0  0  0  0  0  0  0  0  0  0
    2.1717   52.9346  164.5576 C   0  0  2  0  0  0  0  0  0  0  0  0
    2.5994   54.2909  164.6973 O   0  0  0  0  0  0  0  0  0  0  0  0
    0.2445   53.5766  166.1146 C   0  0  0  0  0  0  0  0  0  0  0  0
   -4.2071   51.3926  163.1745 H   0  0  0  0  0  0  0  0  0  0  0  0
   -6.3471   50.4679  163.6543 H   0  0  0  0  0  0  0  0  0  0  0  0
   -7.1842   48.3085  164.5493 H   0  0  0  0  0  0  0  0  0  0  0  0
   -4.6539   47.9412  166.5330 H   0  0  0  0  0  0  0  0  0  0  0  0
   -2.1636   47.5619  166.2969 H   0  0  0  0  0  0  0  0  0  0  0  0
   -2.2253   48.9333  167.3874 H   0  0  0  0  0  0  0  0  0  0  0  0
   -0.4358   48.4910  164.9572 H   0  0  0  0  0  0  0  0  0  0  0  0
    0.0190   48.8610  166.6307 H   0  0  0  0  0  0  0  0  0  0  0  0
   -1.0524   51.1008  166.4041 H   0  0  0  0  0  0  0  0  0  0  0  0
   -1.3982   50.3374  163.4509 H   0  0  0  0  0  0  0  0  0  0  0  0
   -2.2653   52.9534  164.7380 H   0  0  0  0  0  0  0  0  0  0  0  0
   -2.3090   52.5365  163.0300 H   0  0  0  0  0  0  0  0  0  0  0  0
   -0.4335   54.0417  163.5600 H   0  0  0  0  0  0  0  0  0  0  0  0
    0.0481   52.5273  162.7893 H   0  0  0  0  0  0  0  0  0  0  0  0
    0.9355   50.6601  164.1521 H   0  0  0  0  0  0  0  0  0  0  0  0
    2.3226   49.9054  165.8760 H   0  0  0  0  0  0  0  0  0  0  0  0
    1.6680   51.0794  167.0411 H   0  0  0  0  0  0  0  0  0  0  0  0
    3.7762   51.5060  164.9861 H   0  0  0  0  0  0  0  0  0  0  0  0
    3.3491   52.5263  166.3789 H   0  0  0  0  0  0  0  0  0  0  0  0
    2.3846   52.6291  163.5282 H   0  0  0  0  0  0  0  0  0  0  0  0
    2.1106   54.7871  164.0062 H   0  0  0  0  0  0  0  0  0  0  0  0
   -0.7487   53.3321  166.4857 H   0  0  0  0  0  0  0  0  0  0  0  0
    0.2495   54.6390  165.8521 H   0  0  0  0  0  0  0  0  0  0  0  0
    0.9374   53.4503  166.9365 H   0  0  0  0  0  0  0  0  0  0  0  0
  1  2  2  0  0  0  0
  1 11  1  0  0  0  0
  2  3  1  0  0  0  0
  3  4  1  0  0  0  0
  3  5  2  0  0  0  0
  5  6  1  0  0  0  0
  6  7  1  0  0  0  0
  6 11  2  0  0  0  0
  7  8  1  0  0  0  0
  8  9  1  0  0  0  0
  9 10  1  0  0  0  0
  9 15  1  0  0  0  0
 10 11  1  0  0  0  0
 10 12  1  0  0  0  0
 12 13  1  0  0  0  0
 13 14  1  0  0  0  0
 14 15  1  0  0  0  0
 14 18  1  0  0  0  0
 14 20  1  0  0  0  0
 15 16  1  0  0  0  0
 16 17  1  0  0  0  0
 17 18  1  0  0  0  0
 18 19  1  0  0  0  0
  1 21  1  0  0  0  0
  2 22  1  0  0  0  0
  4 23  1  0  0  0  0
  5 24  1  0  0  0  0
  7 25  1  0  0  0  0
  7 26  1  0  0  0  0
  8 27  1  0  0  0  0
  8 28  1  0  0  0  0
  9 29  1  0  0  0  0
 10 30  1  0  0  0  0
 12 31  1  0  0  0  0
 12 32  1  0  0  0  0
 13 33  1  0  0  0  0
 13 34  1  0  0  0  0
 15 35  1  0  0  0  0
 16 36  1  0  0  0  0
 16 37  1  0  0  0  0
 17 38  1  0  0  0  0
 17 39  1  0  0  0  0
 18 40  1  0  0  0  0
 19 41  1  0  0  0  0
 20 42  1  0  0  0  0
 20 43  1  0  0  0  0
 20 44  1  0  0  0  0
M  END
$$$$
1qkt_776
  -OEChem-01202217033D

 44 47  0     1  0  0  0  0  0999 V2000
   -0.2681   53.5229  166.3534 C   0  0  0  0  0  0  0  0  0  0  0  0
    0.8802   54.2944  166.1301 C   0  0  0  0  0  0  0  0  0  0  0  0
    1.6077   54.1315  164.9469 C   0  0  0  0  0  0  0  0  0  0  0  0
    2.7300   54.8593  164.7637 O   0  0  0  0  0  0  0  0  0  0  0  0
    1.1833   53.1950  163.9893 C   0  0  0  0  0  0  0  0  0  0  0  0
   -0.0008   52.4512  164.1829 C   0  0  0  0  0  0  0  0  0  0  0  0
   -0.4142   51.5323  163.0866 C   0  0  0  0  0  0  0  0  0  0  0  0
   -1.6182   50.6144  163.4034 C   0  0  0  0  0  0  0  0  0  0  0  0
   -2.6859   51.3552  164.2456 C   0  0  2  0  0  0  0  0  0  0  0  0
   -2.0343   51.8380  165.6003 C   0  0  1  0  0  0  0  0  0  0  0  0
   -0.7769   52.6377  165.3676 C   0  0  0  0  0  0  0  0  0  0  0  0
   -3.1071   52.5161  166.5274 C   0  0  0  0  0  0  0  0  0  0  0  0
   -4.4065   51.6891  166.7179 C   0  0  0  0  0  0  0  0  0  0  0  0
   -5.0214   51.2332  165.3588 C   0  0  1  0  0  0  0  0  0  0  0  0
   -3.9273   50.4609  164.5569 C   0  0  1  0  0  0  0  0  0  0  0  0
   -4.7356   49.7523  163.4453 C   0  0  0  0  0  0  0  0  0  0  0  0
   -6.0889   49.4084  164.1282 C   0  0  0  0  0  0  0  0  0  0  0  0
   -6.0824   50.1075  165.5107 C   0  0  2  0  0  0  0  0  0  0  0  0
   -7.3613   50.5892  165.9139 O   0  0  0  0  0  0  0  0  0  0  0  0
   -5.6444   52.4767  164.6163 C   0  0  0  0  0  0  0  0  0  0  0  0
   -0.7308   53.6185  167.2537 H   0  0  0  0  0  0  0  0  0  0  0  0
    1.1855   54.9694  166.8394 H   0  0  0  0  0  0  0  0  0  0  0  0
    3.3258   54.2754  164.2388 H   0  0  0  0  0  0  0  0  0  0  0  0
    1.7332   53.0878  163.1372 H   0  0  0  0  0  0  0  0  0  0  0  0
    0.4320   50.8920  162.8166 H   0  0  0  0  0  0  0  0  0  0  0  0
   -0.6630   52.1431  162.2121 H   0  0  0  0  0  0  0  0  0  0  0  0
   -1.2651   49.7358  163.9517 H   0  0  0  0  0  0  0  0  0  0  0  0
   -2.0615   50.2835  162.4603 H   0  0  0  0  0  0  0  0  0  0  0  0
   -3.0056   52.2195  163.6591 H   0  0  0  0  0  0  0  0  0  0  0  0
   -1.7034   50.9403  166.1415 H   0  0  0  0  0  0  0  0  0  0  0  0
   -3.3595   53.5050  166.1426 H   0  0  0  0  0  0  0  0  0  0  0  0
   -2.6897   52.6397  167.5251 H   0  0  0  0  0  0  0  0  0  0  0  0
   -5.1382   52.2811  167.2786 H   0  0  0  0  0  0  0  0  0  0  0  0
   -4.1598   50.8128  167.3256 H   0  0  0  0  0  0  0  0  0  0  0  0
   -3.5399   49.6435  165.1842 H   0  0  0  0  0  0  0  0  0  0  0  0
   -4.2250   48.8513  163.0967 H   0  0  0  0  0  0  0  0  0  0  0  0
   -4.8891   50.4148  162.5906 H   0  0  0  0  0  0  0  0  0  0  0  0
   -6.1927   48.3311  164.2575 H   0  0  0  0  0  0  0  0  0  0  0  0
   -6.9238   49.7689  163.5228 H   0  0  0  0  0  0  0  0  0  0  0  0
   -5.7525   49.3821  166.2647 H   0  0  0  0  0  0  0  0  0  0  0  0
   -7.6667   49.9646  166.6012 H   0  0  0  0  0  0  0  0  0  0  0  0
   -4.9059   53.2449  164.3955 H   0  0  0  0  0  0  0  0  0  0  0  0
   -6.4066   52.9386  165.2405 H   0  0  0  0  0  0  0  0  0  0  0  0
   -6.1211   52.2005  163.6758 H   0  0  0  0  0  0  0  0  0  0  0  0
  1  2  2  0  0  0  0
  1 11  1  0  0  0  0
  2  3  1  0  0  0  0
  3  4  1  0  0  0  0
  3  5  2  0  0  0  0
  5  6  1  0  0  0  0
  6  7  1  0  0  0  0
  6 11  2  0  0  0  0
  7  8  1  0  0  0  0
  8  9  1  0  0  0  0
  9 10  1  0  0  0  0
  9 15  1  0  0  0  0
 10 11  1  0  0  0  0
 10 12  1  0  0  0  0
 12 13  1  0  0  0  0
 13 14  1  0  0  0  0
 14 15  1  0  0  0  0
 14 18  1  0  0  0  0
 14 20  1  0  0  0  0
 15 16  1  0  0  0  0
 16 17  1  0  0  0  0
 17 18  1  0  0  0  0
 18 19  1  0  0  0  0
  1 21  1  0  0  0  0
  2 22  1  0  0  0  0
  4 23  1  0  0  0  0
  5 24  1  0  0  0  0
  7 25  1  0  0  0  0
  7 26  1  0  0  0  0
  8 27  1  0  0  0  0
  8 28  1  0  0  0  0
  9 29  1  0  0  0  0
 10 30  1  0  0  0  0
 12 31  1  0  0  0  0
 12 32  1  0  0  0  0
 13 33  1  0  0  0  0
 13 34  1  0  0  0  0
 15 35  1  0  0  0  0
 16 36  1  0  0  0  0
 16 37  1  0  0  0  0
 17 38  1  0  0  0  0
 17 39  1  0  0  0  0
 18 40  1  0  0  0  0
 19 41  1  0  0  0  0
 20 42  1  0  0  0  0
 20 43  1  0  0  0  0
 20 44  1  0  0  0  0
M  END
$$$$
1qkt_826
  -OEChem-01202217033D

 44 47  0     1  0  0  0  0  0999 V2000
    1.1888   52.7028  165.1585 C   0  0  0  0  0  0  0  0  0  0  0  0
    2.5878   52.6442  165.1996 C   0  0  0  0  0  0  0  0  0  0  0  0
    3.2368   51.4086  165.3694 C   0  0  0  0  0  0  0  0  0  0  0  0
    4.5936   51.3522  165.3385 O   0  0  0  0  0  0  0  0  0  0  0  0
    2.4656   50.2466  165.5597 C   0  0  0  0  0  0  0  0  0  0  0  0
    1.0509   50.2970  165.5395 C   0  0  0  0  0  0  0  0  0  0  0  0
    0.3056   49.0255  165.7713 C   0  0  0  0  0  0  0  0  0  0  0  0
   -1.2182   49.1915  165.9810 C   0  0  0  0  0  0  0  0  0  0  0  0
   -1.7819   50.2078  164.9580 C   0  0  2  0  0  0  0  0  0  0  0  0
   -1.1204   51.6208  165.1996 C   0  0  1  0  0  0  0  0  0  0  0  0
    0.3857   51.5356  165.2681 C   0  0  0  0  0  0  0  0  0  0  0  0
   -1.7201   52.6706  164.1920 C   0  0  0  0  0  0  0  0  0  0  0  0
   -3.2835   52.6847  164.1254 C   0  0  0  0  0  0  0  0  0  0  0  0
   -3.8893   51.2620  163.8838 C   0  0  1  0  0  0  0  0  0  0  0  0
   -3.3354   50.3304  165.0045 C   0  0  1  0  0  0  0  0  0  0  0  0
   -4.2294   49.0713  164.9232 C   0  0  0  0  0  0  0  0  0  0  0  0
   -5.6183   49.6195  164.5171 C   0  0  0  0  0  0  0  0  0  0  0  0
   -5.4173   51.1186  164.1585 C   0  0  2  0  0  0  0  0  0  0  0  0
   -6.2509   51.5301  163.0728 O   0  0  0  0  0  0  0  0  0  0  0  0
   -3.5860   50.8032  162.4016 C   0  0  0  0  0  0  0  0  0  0  0  0
    0.7641   53.6181  165.0232 H   0  0  0  0  0  0  0  0  0  0  0  0
    3.1404   53.4958  165.0923 H   0  0  0  0  0  0  0  0  0  0  0  0
    4.8134   50.5314  164.8507 H   0  0  0  0  0  0  0  0  0  0  0  0
    2.9494   49.3565  165.7154 H   0  0  0  0  0  0  0  0  0  0  0  0
    0.7087   48.5141  166.6527 H   0  0  0  0  0  0  0  0  0  0  0  0
    0.4674   48.3759  164.9065 H   0  0  0  0  0  0  0  0  0  0  0  0
   -1.4241   49.5360  166.9998 H   0  0  0  0  0  0  0  0  0  0  0  0
   -1.6951   48.2168  165.8531 H   0  0  0  0  0  0  0  0  0  0  0  0
   -1.4940   49.8455  163.9701 H   0  0  0  0  0  0  0  0  0  0  0  0
   -1.4269   51.9619  166.1936 H   0  0  0  0  0  0  0  0  0  0  0  0
   -1.3107   52.4891  163.1989 H   0  0  0  0  0  0  0  0  0  0  0  0
   -1.4211   53.6834  164.4834 H   0  0  0  0  0  0  0  0  0  0  0  0
   -3.6097   53.3669  163.3346 H   0  0  0  0  0  0  0  0  0  0  0  0
   -3.6636   53.0884  165.0661 H   0  0  0  0  0  0  0  0  0  0  0  0
   -3.5638   50.7772  165.9824 H   0  0  0  0  0  0  0  0  0  0  0  0
   -4.2697   48.5556  165.8871 H   0  0  0  0  0  0  0  0  0  0  0  0
   -3.8474   48.3756  164.1713 H   0  0  0  0  0  0  0  0  0  0  0  0
   -6.3323   49.5176  165.3413 H   0  0  0  0  0  0  0  0  0  0  0  0
   -6.0060   49.0609  163.6574 H   0  0  0  0  0  0  0  0  0  0  0  0
   -5.6996   51.7268  165.0237 H   0  0  0  0  0  0  0  0  0  0  0  0
   -7.1111   51.0936  163.2271 H   0  0  0  0  0  0  0  0  0  0  0  0
   -2.5220   50.7922  162.1729 H   0  0  0  0  0  0  0  0  0  0  0  0
   -4.0570   51.4898  161.6943 H   0  0  0  0  0  0  0  0  0  0  0  0
   -3.9749   49.8047  162.2003 H   0  0  0  0  0  0  0  0  0  0  0  0
  1  2  2  0  0  0  0
  1 11  1  0  0  0  0
  2  3  1  0  0  0  0
  3  4  1  0  0  0  0
  3  5  2  0  0  0  0
  5  6  1  0  0  0  0
  6  7  1  0  0  0  0
  6 11  2  0  0  0  0
  7  8  1  0  0  0  0
  8  9  1  0  0  0  0
  9 10  1  0  0  0  0
  9 15  1  0  0  0  0
 10 11  1  0  0  0  0
 10 12  1  0  0  0  0
 12 13  1  0  0  0  0
 13 14  1  0  0  0  0
 14 15  1  0  0  0  0
 14 18  1  0  0  0  0
 14 20  1  0  0  0  0
 15 16  1  0  0  0  0
 16 17  1  0  0  0  0
 17 18  1  0  0  0  0
 18 19  1  0  0  0  0
  1 21  1  0  0  0  0
  2 22  1  0  0  0  0
  4 23  1  0  0  0  0
  5 24  1  0  0  0  0
  7 25  1  0  0  0  0
  7 26  1  0  0  0  0
  8 27  1  0  0  0  0
  8 28  1  0  0  0  0
  9 29  1  0  0  0  0
 10 30  1  0  0  0  0
 12 31  1  0  0  0  0
 12 32  1  0  0  0  0
 13 33  1  0  0  0  0
 13 34  1  0  0  0  0
 15 35  1  0  0  0  0
 16 36  1  0  0  0  0
 16 37  1  0  0  0  0
 17 38  1  0  0  0  0
 17 39  1  0  0  0  0
 18 40  1  0  0  0  0
 19 41  1  0  0  0  0
 20 42  1  0  0  0  0
 20 43  1  0  0  0  0
 20 44  1  0  0  0  0
M  END
$$$$
1qkt_834
  -OEChem-01202217033D

 44 47  0     1  0  0  0  0  0999 V2000
    0.6300   52.6618  165.0998 C   0  0  0  0  0  0  0  0  0  0  0  0
    2.0343   52.6803  165.0354 C   0  0  0  0  0  0  0  0  0  0  0  0
    2.7688   51.5188  165.3133 C   0  0  0  0  0  0  0  0  0  0  0  0
    4.1254   51.5404  165.2703 O   0  0  0  0  0  0  0  0  0  0  0  0
    2.0903   50.3400  165.6645 C   0  0  0  0  0  0  0  0  0  0  0  0
    0.6768   50.3102  165.7432 C   0  0  0  0  0  0  0  0  0  0  0  0
    0.0414   49.0173  166.1197 C   0  0  0  0  0  0  0  0  0  0  0  0
   -1.4808   49.0846  166.4021 C   0  0  0  0  0  0  0  0  0  0  0  0
   -2.1797   50.0133  165.3749 C   0  0  2  0  0  0  0  0  0  0  0  0
   -1.5946   51.4723  165.5253 C   0  0  1  0  0  0  0  0  0  0  0  0
   -0.0849   51.4771  165.4198 C   0  0  0  0  0  0  0  0  0  0  0  0
   -2.3553   52.4824  164.5922 C   0  0  0  0  0  0  0  0  0  0  0  0
   -3.9120   52.3885  164.6637 C   0  0  0  0  0  0  0  0  0  0  0  0
   -4.4390   50.9280  164.4647 C   0  0  1  0  0  0  0  0  0  0  0  0
   -3.7324   50.0352  165.5349 C   0  0  1  0  0  0  0  0  0  0  0  0
   -4.5479   48.7234  165.5087 C   0  0  0  0  0  0  0  0  0  0  0  0
   -6.0048   49.1909  165.2510 C   0  0  0  0  0  0  0  0  0  0  0  0
   -5.9290   50.6964  164.8753 C   0  0  2  0  0  0  0  0  0  0  0  0
   -6.8969   51.0429  163.8829 O   0  0  0  0  0  0  0  0  0  0  0  0
   -4.2252   50.4929  162.9633 C   0  0  0  0  0  0  0  0  0  0  0  0
    0.1436   53.5368  164.9084 H   0  0  0  0  0  0  0  0  0  0  0  0
    2.5197   53.5458  164.7867 H   0  0  0  0  0  0  0  0  0  0  0  0
    4.3379   51.3741  164.3225 H   0  0  0  0  0  0  0  0  0  0  0  0
    2.6361   49.5012  165.8741 H   0  0  0  0  0  0  0  0  0  0  0  0
    0.5294   48.6152  167.0133 H   0  0  0  0  0  0  0  0  0  0  0  0
    0.2110   48.3129  165.3004 H   0  0  0  0  0  0  0  0  0  0  0  0
   -1.6461   49.4581  167.4157 H   0  0  0  0  0  0  0  0  0  0  0  0
   -1.8908   48.0730  166.3478 H   0  0  0  0  0  0  0  0  0  0  0  0
   -1.9378   49.6304  164.3802 H   0  0  0  0  0  0  0  0  0  0  0  0
   -1.8058   51.8034  166.5492 H   0  0  0  0  0  0  0  0  0  0  0  0
   -2.0242   52.3414  163.5627 H   0  0  0  0  0  0  0  0  0  0  0  0
   -2.1013   53.5061  164.8740 H   0  0  0  0  0  0  0  0  0  0  0  0
   -4.3489   53.0497  163.9101 H   0  0  0  0  0  0  0  0  0  0  0  0
   -4.2291   52.7663  165.6418 H   0  0  0  0  0  0  0  0  0  0  0  0
   -3.9129   50.4654  166.5318 H   0  0  0  0  0  0  0  0  0  0  0  0
   -4.4678   48.1841  166.4545 H   0  0  0  0  0  0  0  0  0  0  0  0
   -4.2000   48.0676  164.7051 H   0  0  0  0  0  0  0  0  0  0  0  0
   -6.6215   49.0483  166.1444 H   0  0  0  0  0  0  0  0  0  0  0  0
   -6.4426   48.6104  164.4339 H   0  0  0  0  0  0  0  0  0  0  0  0
   -6.1633   51.2861  165.7679 H   0  0  0  0  0  0  0  0  0  0  0  0
   -6.7791   52.0081  163.7348 H   0  0  0  0  0  0  0  0  0  0  0  0
   -3.1762   50.5099  162.6697 H   0  0  0  0  0  0  0  0  0  0  0  0
   -4.7585   51.1709  162.2935 H   0  0  0  0  0  0  0  0  0  0  0  0
   -4.5967   49.4850  162.7740 H   0  0  0  0  0  0  0  0  0  0  0  0
  1  2  2  0  0  0  0
  1 11  1  0  0  0  0
  2  3  1  0  0  0  0
  3  4  1  0  0  0  0
  3  5  2  0  0  0  0
  5  6  1  0  0  0  0
  6  7  1  0  0  0  0
  6 11  2  0  0  0  0
  7  8  1  0  0  0  0
  8  9  1  0  0  0  0
  9 10  1  0  0  0  0
  9 15  1  0  0  0  0
 10 11  1  0  0  0  0
 10 12  1  0  0  0  0
 12 13  1  0  0  0  0
 13 14  1  0  0  0  0
 14 15  1  0  0  0  0
 14 18  1  0  0  0  0
 14 20  1  0  0  0  0
 15 16  1  0  0  0  0
 16 17  1  0  0  0  0
 17 18  1  0  0  0  0
 18 19  1  0  0  0  0
  1 21  1  0  0  0  0
  2 22  1  0  0  0  0
  4 23  1  0  0  0  0
  5 24  1  0  0  0  0
  7 25  1  0  0  0  0
  7 26  1  0  0  0  0
  8 27  1  0  0  0  0
  8 28  1  0  0  0  0
  9 29  1  0  0  0  0
 10 30  1  0  0  0  0
 12 31  1  0  0  0  0
 12 32  1  0  0  0  0
 13 33  1  0  0  0  0
 13 34  1  0  0  0  0
 15 35  1  0  0  0  0
 16 36  1  0  0  0  0
 16 37  1  0  0  0  0
 17 38  1  0  0  0  0
 17 39  1  0  0  0  0
 18 40  1  0  0  0  0
 19 41  1  0  0  0  0
 20 42  1  0  0  0  0
 20 43  1  0  0  0  0
 20 44  1  0  0  0  0
M  END
$$$$
1qkt_842
  -OEChem-01202217033D

 44 47  0     1  0  0  0  0  0999 V2000
    0.2436   49.8278  165.2257 C   0  0  0  0  0  0  0  0  0  0  0  0
    1.5535   49.9234  165.7326 C   0  0  0  0  0  0  0  0  0  0  0  0
    2.1237   51.1818  165.9765 C   0  0  0  0  0  0  0  0  0  0  0  0
    3.3737   51.2596  166.4959 O   0  0  0  0  0  0  0  0  0  0  0  0
    1.3880   52.3397  165.6793 C   0  0  0  0  0  0  0  0  0  0  0  0
    0.0699   52.2566  165.1746 C   0  0  0  0  0  0  0  0  0  0  0  0
   -0.6333   53.5403  164.9174 C   0  0  0  0  0  0  0  0  0  0  0  0
   -1.9867   53.4258  164.1792 C   0  0  0  0  0  0  0  0  0  0  0  0
   -2.7894   52.1914  164.6688 C   0  0  2  0  0  0  0  0  0  0  0  0
   -1.9465   50.8820  164.4123 C   0  0  1  0  0  0  0  0  0  0  0  0
   -0.5488   50.9839  164.9764 C   0  0  0  0  0  0  0  0  0  0  0  0
   -2.7808   49.6182  164.8269 C   0  0  0  0  0  0  0  0  0  0  0  0
   -4.1996   49.5680  164.1750 C   0  0  0  0  0  0  0  0  0  0  0  0
   -5.0269   50.8726  164.4420 C   0  0  1  0  0  0  0  0  0  0  0  0
   -4.1711   52.0803  163.9460 C   0  0  1  0  0  0  0  0  0  0  0  0
   -5.1691   53.2614  163.9399 C   0  0  0  0  0  0  0  0  0  0  0  0
   -6.5108   52.6096  163.5117 C   0  0  0  0  0  0  0  0  0  0  0  0
   -6.2781   51.0738  163.5302 C   0  0  2  0  0  0  0  0  0  0  0  0
   -7.4419   50.3537  163.9324 O   0  0  0  0  0  0  0  0  0  0  0  0
   -5.4693   50.9173  165.9541 C   0  0  0  0  0  0  0  0  0  0  0  0
   -0.1174   48.8904  165.0436 H   0  0  0  0  0  0  0  0  0  0  0  0
    2.0932   49.0726  165.9233 H   0  0  0  0  0  0  0  0  0  0  0  0
    3.6625   52.1961  166.3827 H   0  0  0  0  0  0  0  0  0  0  0  0
    1.8211   53.2551  165.8344 H   0  0  0  0  0  0  0  0  0  0  0  0
    0.0140   54.1962  164.3290 H   0  0  0  0  0  0  0  0  0  0  0  0
   -0.7945   54.0237  165.8831 H   0  0  0  0  0  0  0  0  0  0  0  0
   -1.8073   53.3416  163.1027 H   0  0  0  0  0  0  0  0  0  0  0  0
   -2.5560   54.3414  164.3527 H   0  0  0  0  0  0  0  0  0  0  0  0
   -2.9553   52.3136  165.7431 H   0  0  0  0  0  0  0  0  0  0  0  0
   -1.7929   50.7920  163.3327 H   0  0  0  0  0  0  0  0  0  0  0  0
   -2.8614   49.5757  165.9157 H   0  0  0  0  0  0  0  0  0  0  0  0
   -2.2704   48.7068  164.5097 H   0  0  0  0  0  0  0  0  0  0  0  0
   -4.7391   48.6941  164.5468 H   0  0  0  0  0  0  0  0  0  0  0  0
   -4.0680   49.4270  163.0993 H   0  0  0  0  0  0  0  0  0  0  0  0
   -3.9174   51.9186  162.8874 H   0  0  0  0  0  0  0  0  0  0  0  0
   -4.8631   54.0349  163.2335 H   0  0  0  0  0  0  0  0  0  0  0  0
   -5.2486   53.7068  164.9361 H   0  0  0  0  0  0  0  0  0  0  0  0
   -6.8055   52.9488  162.5153 H   0  0  0  0  0  0  0  0  0  0  0  0
   -7.3030   52.8859  164.2094 H   0  0  0  0  0  0  0  0  0  0  0  0
   -6.0431   50.7569  162.5111 H   0  0  0  0  0  0  0  0  0  0  0  0
   -7.2237   49.4106  163.7573 H   0  0  0  0  0  0  0  0  0  0  0  0
   -4.6196   50.9462  166.6336 H   0  0  0  0  0  0  0  0  0  0  0  0
   -6.0567   50.0303  166.2038 H   0  0  0  0  0  0  0  0  0  0  0  0
   -6.0905   51.7868  166.1740 H   0  0  0  0  0  0  0  0  0  0  0  0
  1  2  2  0  0  0  0
  1 11  1  0  0  0  0
  2  3  1  0  0  0  0
  3  4  1  0  0  0  0
  3  5  2  0  0  0  0
  5  6  1  0  0  0  0
  6  7  1  0  0  0  0
  6 11  2  0  0  0  0
  7  8  1  0  0  0  0
  8  9  1  0  0  0  0
  9 10  1  0  0  0  0
  9 15  1  0  0  0  0
 10 11  1  0  0  0  0
 10 12  1  0  0  0  0
 12 13  1  0  0  0  0
 13 14  1  0  0  0  0
 14 15  1  0  0  0  0
 14 18  1  0  0  0  0
 14 20  1  0  0  0  0
 15 16  1  0  0  0  0
 16 17  1  0  0  0  0
 17 18  1  0  0  0  0
 18 19  1  0  0  0  0
  1 21  1  0  0  0  0
  2 22  1  0  0  0  0
  4 23  1  0  0  0  0
  5 24  1  0  0  0  0
  7 25  1  0  0  0  0
  7 26  1  0  0  0  0
  8 27  1  0  0  0  0
  8 28  1  0  0  0  0
  9 29  1  0  0  0  0
 10 30  1  0  0  0  0
 12 31  1  0  0  0  0
 12 32  1  0  0  0  0
 13 33  1  0  0  0  0
 13 34  1  0  0  0  0
 15 35  1  0  0  0  0
 16 36  1  0  0  0  0
 16 37  1  0  0  0  0
 17 38  1  0  0  0  0
 17 39  1  0  0  0  0
 18 40  1  0  0  0  0
 19 41  1  0  0  0  0
 20 42  1  0  0  0  0
 20 43  1  0  0  0  0
 20 44  1  0  0  0  0
M  END
$$$$
1qkt_848
  -OEChem-01202217033D

 44 47  0     1  0  0  0  0  0999 V2000
   -5.4960   54.1066  162.1662 C   0  0  0  0  0  0  0  0  0  0  0  0
   -6.7085   54.7740  161.9356 C   0  0  0  0  0  0  0  0  0  0  0  0
   -7.8953   54.2707  162.4871 C   0  0  0  0  0  0  0  0  0  0  0  0
   -9.0772   54.8991  162.2524 O   0  0  0  0  0  0  0  0  0  0  0  0
   -7.8686   53.0791  163.2315 C   0  0  0  0  0  0  0  0  0  0  0  0
   -6.6619   52.3640  163.4069 C   0  0  0  0  0  0  0  0  0  0  0  0
   -6.7419   51.0348  164.0706 C   0  0  0  0  0  0  0  0  0  0  0  0
   -5.4223   50.2156  164.0651 C   0  0  0  0  0  0  0  0  0  0  0  0
   -4.2226   51.1552  164.3490 C   0  0  2  0  0  0  0  0  0  0  0  0
   -4.1109   52.2216  163.1914 C   0  0  1  0  0  0  0  0  0  0  0  0
   -5.4292   52.9214  162.9453 C   0  0  0  0  0  0  0  0  0  0  0  0
   -2.8759   53.1722  163.4370 C   0  0  0  0  0  0  0  0  0  0  0  0
   -1.5453   52.4213  163.7437 C   0  0  0  0  0  0  0  0  0  0  0  0
   -1.6929   51.3744  164.8919 C   0  0  1  0  0  0  0  0  0  0  0  0
   -2.8632   50.4054  164.5035 C   0  0  1  0  0  0  0  0  0  0  0  0
   -2.6995   49.2165  165.4790 C   0  0  0  0  0  0  0  0  0  0  0  0
   -1.1652   49.0923  165.6588 C   0  0  0  0  0  0  0  0  0  0  0  0
   -0.5263   50.3445  164.9945 C   0  0  2  0  0  0  0  0  0  0  0  0
    0.6114   50.7953  165.7252 O   0  0  0  0  0  0  0  0  0  0  0  0
   -1.8677   52.1264  166.2677 C   0  0  0  0  0  0  0  0  0  0  0  0
   -4.6528   54.5029  161.7464 H   0  0  0  0  0  0  0  0  0  0  0  0
   -6.7214   55.6315  161.3790 H   0  0  0  0  0  0  0  0  0  0  0  0
   -9.5001   54.9993  163.1515 H   0  0  0  0  0  0  0  0  0  0  0  0
   -8.7436   52.7221  163.6181 H   0  0  0  0  0  0  0  0  0  0  0  0
   -7.5148   50.4294  163.5796 H   0  0  0  0  0  0  0  0  0  0  0  0
   -7.0519   51.1901  165.1085 H   0  0  0  0  0  0  0  0  0  0  0  0
   -5.2936   49.7208  163.0943 H   0  0  0  0  0  0  0  0  0  0  0  0
   -5.4860   49.4393  164.8292 H   0  0  0  0  0  0  0  0  0  0  0  0
   -4.4460   51.6638  165.2854 H   0  0  0  0  0  0  0  0  0  0  0  0
   -3.8928   51.6833  162.2593 H   0  0  0  0  0  0  0  0  0  0  0  0
   -3.1040   53.8670  164.2439 H   0  0  0  0  0  0  0  0  0  0  0  0
   -2.6838   53.7704  162.5418 H   0  0  0  0  0  0  0  0  0  0  0  0
   -0.7711   53.1467  164.0037 H   0  0  0  0  0  0  0  0  0  0  0  0
   -1.2176   51.9242  162.8243 H   0  0  0  0  0  0  0  0  0  0  0  0
   -2.6557   49.9814  163.5100 H   0  0  0  0  0  0  0  0  0  0  0  0
   -3.1304   48.3008  165.0729 H   0  0  0  0  0  0  0  0  0  0  0  0
   -3.1791   49.4366  166.4367 H   0  0  0  0  0  0  0  0  0  0  0  0
   -0.7881   48.1756  165.1930 H   0  0  0  0  0  0  0  0  0  0  0  0
   -0.9185   49.0610  166.7254 H   0  0  0  0  0  0  0  0  0  0  0  0
   -0.1703   50.0792  163.9932 H   0  0  0  0  0  0  0  0  0  0  0  0
    0.9175   51.6008  165.2369 H   0  0  0  0  0  0  0  0  0  0  0  0
   -2.7568   52.7482  166.2928 H   0  0  0  0  0  0  0  0  0  0  0  0
   -1.0078   52.7708  166.4593 H   0  0  0  0  0  0  0  0  0  0  0  0
   -1.9442   51.4310  167.1078 H   0  0  0  0  0  0  0  0  0  0  0  0
  1  2  2  0  0  0  0
  1 11  1  0  0  0  0
  2  3  1  0  0  0  0
  3  4  1  0  0  0  0
  3  5  2  0  0  0  0
  5  6  1  0  0  0  0
  6  7  1  0  0  0  0
  6 11  2  0  0  0  0
  7  8  1  0  0  0  0
  8  9  1  0  0  0  0
  9 10  1  0  0  0  0
  9 15  1  0  0  0  0
 10 11  1  0  0  0  0
 10 12  1  0  0  0  0
 12 13  1  0  0  0  0
 13 14  1  0  0  0  0
 14 15  1  0  0  0  0
 14 18  1  0  0  0  0
 14 20  1  0  0  0  0
 15 16  1  0  0  0  0
 16 17  1  0  0  0  0
 17 18  1  0  0  0  0
 18 19  1  0  0  0  0
  1 21  1  0  0  0  0
  2 22  1  0  0  0  0
  4 23  1  0  0  0  0
  5 24  1  0  0  0  0
  7 25  1  0  0  0  0
  7 26  1  0  0  0  0
  8 27  1  0  0  0  0
  8 28  1  0  0  0  0
  9 29  1  0  0  0  0
 10 30  1  0  0  0  0
 12 31  1  0  0  0  0
 12 32  1  0  0  0  0
 13 33  1  0  0  0  0
 13 34  1  0  0  0  0
 15 35  1  0  0  0  0
 16 36  1  0  0  0  0
 16 37  1  0  0  0  0
 17 38  1  0  0  0  0
 17 39  1  0  0  0  0
 18 40  1  0  0  0  0
 19 41  1  0  0  0  0
 20 42  1  0  0  0  0
 20 43  1  0  0  0  0
 20 44  1  0  0  0  0
M  END
$$$$
1qkt_851
  -OEChem-01202217033D

 44 47  0     1  0  0  0  0  0999 V2000
   -5.6762   54.0935  162.4083 C   0  0  0  0  0  0  0  0  0  0  0  0
   -6.9133   54.7266  162.2333 C   0  0  0  0  0  0  0  0  0  0  0  0
   -8.0814   54.1439  162.7536 C   0  0  0  0  0  0  0  0  0  0  0  0
   -9.2772   54.7616  162.6233 O   0  0  0  0  0  0  0  0  0  0  0  0
   -8.0022   52.9031  163.3997 C   0  0  0  0  0  0  0  0  0  0  0  0
   -6.7645   52.2377  163.5549 C   0  0  0  0  0  0  0  0  0  0  0  0
   -6.7780   50.8920  164.1978 C   0  0  0  0  0  0  0  0  0  0  0  0
   -5.4318   50.1260  164.1514 C   0  0  0  0  0  0  0  0  0  0  0  0
   -4.2595   51.0976  164.4353 C   0  0  2  0  0  0  0  0  0  0  0  0
   -4.2163   52.2030  163.3108 C   0  0  1  0  0  0  0  0  0  0  0  0
   -5.5584   52.8674  163.1192 C   0  0  0  0  0  0  0  0  0  0  0  0
   -3.0027   53.1763  163.5411 C   0  0  0  0  0  0  0  0  0  0  0  0
   -1.6389   52.4507  163.7721 C   0  0  0  0  0  0  0  0  0  0  0  0
   -1.7186   51.3649  164.8955 C   0  0  1  0  0  0  0  0  0  0  0  0
   -2.8728   50.3793  164.5205 C   0  0  1  0  0  0  0  0  0  0  0  0
   -2.6501   49.1783  165.4635 C   0  0  0  0  0  0  0  0  0  0  0  0
   -1.1052   49.0704  165.5730 C   0  0  0  0  0  0  0  0  0  0  0  0
   -0.5228   50.3595  164.9298 C   0  0  2  0  0  0  0  0  0  0  0  0
    0.6390   50.8271  165.6160 O   0  0  0  0  0  0  0  0  0  0  0  0
   -1.8545   52.0749  166.2997 C   0  0  0  0  0  0  0  0  0  0  0  0
   -4.8560   54.5485  162.0053 H   0  0  0  0  0  0  0  0  0  0  0  0
   -6.9677   55.6150  161.7288 H   0  0  0  0  0  0  0  0  0  0  0  0
   -9.3060   55.3940  163.3736 H   0  0  0  0  0  0  0  0  0  0  0  0
   -8.8713   52.4854  163.7422 H   0  0  0  0  0  0  0  0  0  0  0  0
   -7.5304   50.2627  163.7135 H   0  0  0  0  0  0  0  0  0  0  0  0
   -7.0724   51.0207  165.2431 H   0  0  0  0  0  0  0  0  0  0  0  0
   -5.3041   49.6640  163.1670 H   0  0  0  0  0  0  0  0  0  0  0  0
   -5.4581   49.3251  164.8955 H   0  0  0  0  0  0  0  0  0  0  0  0
   -4.4692   51.5682  165.3991 H   0  0  0  0  0  0  0  0  0  0  0  0
   -4.0165   51.6986  162.3583 H   0  0  0  0  0  0  0  0  0  0  0  0
   -3.2193   53.8388  164.3818 H   0  0  0  0  0  0  0  0  0  0  0  0
   -2.8570   53.8103  162.6647 H   0  0  0  0  0  0  0  0  0  0  0  0
   -0.8730   53.1908  164.0191 H   0  0  0  0  0  0  0  0  0  0  0  0
   -1.3382   51.9889  162.8253 H   0  0  0  0  0  0  0  0  0  0  0  0
   -2.6945   49.9780  163.5105 H   0  0  0  0  0  0  0  0  0  0  0  0
   -3.0847   48.2621  165.0538 H   0  0  0  0  0  0  0  0  0  0  0  0
   -3.0958   49.3685  166.4438 H   0  0  0  0  0  0  0  0  0  0  0  0
   -0.7411   48.1858  165.0440 H   0  0  0  0  0  0  0  0  0  0  0  0
   -0.8068   48.9884  166.6215 H   0  0  0  0  0  0  0  0  0  0  0  0
   -0.2101   50.1239  163.9065 H   0  0  0  0  0  0  0  0  0  0  0  0
    0.9463   51.6025  165.1022 H   0  0  0  0  0  0  0  0  0  0  0  0
   -2.7400   52.7037  166.3577 H   0  0  0  0  0  0  0  0  0  0  0  0
   -0.9920   52.7173  166.4847 H   0  0  0  0  0  0  0  0  0  0  0  0
   -1.9085   51.3621  167.1231 H   0  0  0  0  0  0  0  0  0  0  0  0
  1  2  2  0  0  0  0
  1 11  1  0  0  0  0
  2  3  1  0  0  0  0
  3  4  1  0  0  0  0
  3  5  2  0  0  0  0
  5  6  1  0  0  0  0
  6  7  1  0  0  0  0
  6 11  2  0  0  0  0
  7  8  1  0  0  0  0
  8  9  1  0  0  0  0
  9 10  1  0  0  0  0
  9 15  1  0  0  0  0
 10 11  1  0  0  0  0
 10 12  1  0  0  0  0
 12 13  1  0  0  0  0
 13 14  1  0  0  0  0
 14 15  1  0  0  0  0
 14 18  1  0  0  0  0
 14 20  1  0  0  0  0
 15 16  1  0  0  0  0
 16 17  1  0  0  0  0
 17 18  1  0  0  0  0
 18 19  1  0  0  0  0
  1 21  1  0  0  0  0
  2 22  1  0  0  0  0
  4 23  1  0  0  0  0
  5 24  1  0  0  0  0
  7 25  1  0  0  0  0
  7 26  1  0  0  0  0
  8 27  1  0  0  0  0
  8 28  1  0  0  0  0
  9 29  1  0  0  0  0
 10 30  1  0  0  0  0
 12 31  1  0  0  0  0
 12 32  1  0  0  0  0
 13 33  1  0  0  0  0
 13 34  1  0  0  0  0
 15 35  1  0  0  0  0
 16 36  1  0  0  0  0
 16 37  1  0  0  0  0
 17 38  1  0  0  0  0
 17 39  1  0  0  0  0
 18 40  1  0  0  0  0
 19 41  1  0  0  0  0
 20 42  1  0  0  0  0
 20 43  1  0  0  0  0
 20 44  1  0  0  0  0
M  END
$$$$
1qkt_855
  -OEChem-01202217033D

 44 47  0     1  0  0  0  0  0999 V2000
    0.4329   50.1455  164.3473 C   0  0  0  0  0  0  0  0  0  0  0  0
    1.2618   49.1876  164.9501 C   0  0  0  0  0  0  0  0  0  0  0  0
    0.9720   48.7157  166.2375 C   0  0  0  0  0  0  0  0  0  0  0  0
    1.7693   47.7655  166.7887 O   0  0  0  0  0  0  0  0  0  0  0  0
   -0.1461   49.2166  166.9276 C   0  0  0  0  0  0  0  0  0  0  0  0
   -0.9861   50.1873  166.3356 C   0  0  0  0  0  0  0  0  0  0  0  0
   -2.1556   50.6444  167.1364 C   0  0  0  0  0  0  0  0  0  0  0  0
   -2.9339   51.8397  166.5410 C   0  0  0  0  0  0  0  0  0  0  0  0
   -3.0377   51.7170  164.9961 C   0  0  2  0  0  0  0  0  0  0  0  0
   -1.5857   51.7133  164.3787 C   0  0  1  0  0  0  0  0  0  0  0  0
   -0.7230   50.6468  165.0051 C   0  0  0  0  0  0  0  0  0  0  0  0
   -1.6336   51.7271  162.8065 C   0  0  0  0  0  0  0  0  0  0  0  0
   -2.6085   52.7774  162.1945 C   0  0  0  0  0  0  0  0  0  0  0  0
   -4.0397   52.7002  162.8178 C   0  0  1  0  0  0  0  0  0  0  0  0
   -3.8829   52.8660  164.3622 C   0  0  1  0  0  0  0  0  0  0  0  0
   -5.3192   53.1514  164.8559 C   0  0  0  0  0  0  0  0  0  0  0  0
   -5.9631   53.9684  163.7052 C   0  0  0  0  0  0  0  0  0  0  0  0
   -4.9581   53.9247  162.5177 C   0  0  2  0  0  0  0  0  0  0  0  0
   -5.6265   53.8795  161.2554 O   0  0  0  0  0  0  0  0  0  0  0  0
   -4.7568   51.3824  162.3377 C   0  0  0  0  0  0  0  0  0  0  0  0
    0.6910   50.4547  163.4114 H   0  0  0  0  0  0  0  0  0  0  0  0
    2.0729   48.8173  164.4473 H   0  0  0  0  0  0  0  0  0  0  0  0
    1.1667   47.1816  167.2999 H   0  0  0  0  0  0  0  0  0  0  0  0
   -0.3361   48.8733  167.8755 H   0  0  0  0  0  0  0  0  0  0  0  0
   -1.8288   50.9293  168.1409 H   0  0  0  0  0  0  0  0  0  0  0  0
   -2.8414   49.7992  167.2403 H   0  0  0  0  0  0  0  0  0  0  0  0
   -2.4173   52.7672  166.8005 H   0  0  0  0  0  0  0  0  0  0  0  0
   -3.9281   51.8706  166.9965 H   0  0  0  0  0  0  0  0  0  0  0  0
   -3.5243   50.7603  164.7857 H   0  0  0  0  0  0  0  0  0  0  0  0
   -1.1084   52.6582  164.6630 H   0  0  0  0  0  0  0  0  0  0  0  0
   -1.8999   50.7322  162.4484 H   0  0  0  0  0  0  0  0  0  0  0  0
   -0.6440   51.9611  162.4068 H   0  0  0  0  0  0  0  0  0  0  0  0
   -2.6610   52.6323  161.1123 H   0  0  0  0  0  0  0  0  0  0  0  0
   -2.1869   53.7723  162.3638 H   0  0  0  0  0  0  0  0  0  0  0  0
   -3.3222   53.7915  164.5668 H   0  0  0  0  0  0  0  0  0  0  0  0
   -5.3163   53.7227  165.7893 H   0  0  0  0  0  0  0  0  0  0  0  0
   -5.8641   52.2176  165.0192 H   0  0  0  0  0  0  0  0  0  0  0  0
   -6.1525   54.9986  164.0234 H   0  0  0  0  0  0  0  0  0  0  0  0
   -6.9203   53.5192  163.4197 H   0  0  0  0  0  0  0  0  0  0  0  0
   -4.3588   54.8406  162.5291 H   0  0  0  0  0  0  0  0  0  0  0  0
   -4.9181   53.7363  160.5919 H   0  0  0  0  0  0  0  0  0  0  0  0
   -4.2176   50.4829  162.6240 H   0  0  0  0  0  0  0  0  0  0  0  0
   -4.8258   51.3749  161.2496 H   0  0  0  0  0  0  0  0  0  0  0  0
   -5.7696   51.3008  162.7357 H   0  0  0  0  0  0  0  0  0  0  0  0
  1  2  2  0  0  0  0
  1 11  1  0  0  0  0
  2  3  1  0  0  0  0
  3  4  1  0  0  0  0
  3  5  2  0  0  0  0
  5  6  1  0  0  0  0
  6  7  1  0  0  0  0
  6 11  2  0  0  0  0
  7  8  1  0  0  0  0
  8  9  1  0  0  0  0
  9 10  1  0  0  0  0
  9 15  1  0  0  0  0
 10 11  1  0  0  0  0
 10 12  1  0  0  0  0
 12 13  1  0  0  0  0
 13 14  1  0  0  0  0
 14 15  1  0  0  0  0
 14 18  1  0  0  0  0
 14 20  1  0  0  0  0
 15 16  1  0  0  0  0
 16 17  1  0  0  0  0
 17 18  1  0  0  0  0
 18 19  1  0  0  0  0
  1 21  1  0  0  0  0
  2 22  1  0  0  0  0
  4 23  1  0  0  0  0
  5 24  1  0  0  0  0
  7 25  1  0  0  0  0
  7 26  1  0  0  0  0
  8 27  1  0  0  0  0
  8 28  1  0  0  0  0
  9 29  1  0  0  0  0
 10 30  1  0  0  0  0
 12 31  1  0  0  0  0
 12 32  1  0  0  0  0
 13 33  1  0  0  0  0
 13 34  1  0  0  0  0
 15 35  1  0  0  0  0
 16 36  1  0  0  0  0
 16 37  1  0  0  0  0
 17 38  1  0  0  0  0
 17 39  1  0  0  0  0
 18 40  1  0  0  0  0
 19 41  1  0  0  0  0
 20 42  1  0  0  0  0
 20 43  1  0  0  0  0
 20 44  1  0  0  0  0
M  END
$$$$
1qkt_858
  -OEChem-01202217033D

 44 47  0     1  0  0  0  0  0999 V2000
   -5.3617   53.9884  162.2388 C   0  0  0  0  0  0  0  0  0  0  0  0
   -6.5631   54.6679  161.9726 C   0  0  0  0  0  0  0  0  0  0  0  0
   -7.7654   54.2196  162.5314 C   0  0  0  0  0  0  0  0  0  0  0  0
   -8.9053   54.9228  162.2966 O   0  0  0  0  0  0  0  0  0  0  0  0
   -7.7684   53.0439  163.3041 C   0  0  0  0  0  0  0  0  0  0  0  0
   -6.5788   52.3067  163.5133 C   0  0  0  0  0  0  0  0  0  0  0  0
   -6.6964   50.9844  164.1954 C   0  0  0  0  0  0  0  0  0  0  0  0
   -5.3969   50.1439  164.2221 C   0  0  0  0  0  0  0  0  0  0  0  0
   -4.1872   51.0673  164.5117 C   0  0  2  0  0  0  0  0  0  0  0  0
   -4.0351   52.1115  163.3402 C   0  0  1  0  0  0  0  0  0  0  0  0
   -5.3305   52.8290  163.0540 C   0  0  0  0  0  0  0  0  0  0  0  0
   -2.7945   53.0434  163.5950 C   0  0  0  0  0  0  0  0  0  0  0  0
   -1.4784   52.2744  163.9349 C   0  0  0  0  0  0  0  0  0  0  0  0
   -1.6676   51.2541  165.1061 C   0  0  1  0  0  0  0  0  0  0  0  0
   -2.8415   50.3011  164.7094 C   0  0  1  0  0  0  0  0  0  0  0  0
   -2.7341   49.1368  165.7215 C   0  0  0  0  0  0  0  0  0  0  0  0
   -1.2127   49.0051  165.9940 C   0  0  0  0  0  0  0  0  0  0  0  0
   -0.5316   50.1964  165.2653 C   0  0  2  0  0  0  0  0  0  0  0  0
    0.6332   50.6483  165.9627 O   0  0  0  0  0  0  0  0  0  0  0  0
   -1.8547   52.0420  166.4610 C   0  0  0  0  0  0  0  0  0  0  0  0
   -4.5099   54.3592  161.8167 H   0  0  0  0  0  0  0  0  0  0  0  0
   -6.5550   55.5029  161.3828 H   0  0  0  0  0  0  0  0  0  0  0  0
   -9.5965   54.4944  162.8313 H   0  0  0  0  0  0  0  0  0  0  0  0
   -8.6563   52.7085  163.6887 H   0  0  0  0  0  0  0  0  0  0  0  0
   -7.4630   50.3891  163.6944 H   0  0  0  0  0  0  0  0  0  0  0  0
   -7.0303   51.1596  165.2230 H   0  0  0  0  0  0  0  0  0  0  0  0
   -5.2573   49.6382  163.2617 H   0  0  0  0  0  0  0  0  0  0  0  0
   -5.4897   49.3790  164.9973 H   0  0  0  0  0  0  0  0  0  0  0  0
   -4.4213   51.5948  165.4373 H   0  0  0  0  0  0  0  0  0  0  0  0
   -3.8094   51.5570  162.4232 H   0  0  0  0  0  0  0  0  0  0  0  0
   -3.0287   53.7482  164.3997 H   0  0  0  0  0  0  0  0  0  0  0  0
   -2.5759   53.6361  162.7056 H   0  0  0  0  0  0  0  0  0  0  0  0
   -0.6926   52.9927  164.1916 H   0  0  0  0  0  0  0  0  0  0  0  0
   -1.1474   51.7473  163.0335 H   0  0  0  0  0  0  0  0  0  0  0  0
   -2.6216   49.8481  163.7358 H   0  0  0  0  0  0  0  0  0  0  0  0
   -3.1489   48.2098  165.3095 H   0  0  0  0  0  0  0  0  0  0  0  0
   -3.2701   49.3862  166.6376 H   0  0  0  0  0  0  0  0  0  0  0  0
   -0.8268   48.0584  165.6100 H   0  0  0  0  0  0  0  0  0  0  0  0
   -1.0214   49.0405  167.0685 H   0  0  0  0  0  0  0  0  0  0  0  0
   -0.1927   49.8571  164.2806 H   0  0  0  0  0  0  0  0  0  0  0  0
    1.0551   51.2923  165.3593 H   0  0  0  0  0  0  0  0  0  0  0  0
   -2.7438   52.6676  166.4591 H   0  0  0  0  0  0  0  0  0  0  0  0
   -0.9986   52.7042  166.6257 H   0  0  0  0  0  0  0  0  0  0  0  0
   -1.9326   51.3786  167.3161 H   0  0  0  0  0  0  0  0  0  0  0  0
  1  2  2  0  0  0  0
  1 11  1  0  0  0  0
  2  3  1  0  0  0  0
  3  4  1  0  0  0  0
  3  5  2  0  0  0  0
  5  6  1  0  0  0  0
  6  7  1  0  0  0  0
  6 11  2  0  0  0  0
  7  8  1  0  0  0  0
  8  9  1  0  0  0  0
  9 10  1  0  0  0  0
  9 15  1  0  0  0  0
 10 11  1  0  0  0  0
 10 12  1  0  0  0  0
 12 13  1  0  0  0  0
 13 14  1  0  0  0  0
 14 15  1  0  0  0  0
 14 18  1  0  0  0  0
 14 20  1  0  0  0  0
 15 16  1  0  0  0  0
 16 17  1  0  0  0  0
 17 18  1  0  0  0  0
 18 19  1  0  0  0  0
  1 21  1  0  0  0  0
  2 22  1  0  0  0  0
  4 23  1  0  0  0  0
  5 24  1  0  0  0  0
  7 25  1  0  0  0  0
  7 26  1  0  0  0  0
  8 27  1  0  0  0  0
  8 28  1  0  0  0  0
  9 29  1  0  0  0  0
 10 30  1  0  0  0  0
 12 31  1  0  0  0  0
 12 32  1  0  0  0  0
 13 33  1  0  0  0  0
 13 34  1  0  0  0  0
 15 35  1  0  0  0  0
 16 36  1  0  0  0  0
 16 37  1  0  0  0  0
 17 38  1  0  0  0  0
 17 39  1  0  0  0  0
 18 40  1  0  0  0  0
 19 41  1  0  0  0  0
 20 42  1  0  0  0  0
 20 43  1  0  0  0  0
 20 44  1  0  0  0  0
M  END
$$$$
1qkt_86
  -OEChem-01202217033D

 44 47  0     1  0  0  0  0  0999 V2000
    0.5712   53.3497  165.4641 C   0  0  0  0  0  0  0  0  0  0  0  0
    1.9645   53.4621  165.3822 C   0  0  0  0  0  0  0  0  0  0  0  0
    2.7764   52.3085  165.4885 C   0  0  0  0  0  0  0  0  0  0  0  0
    4.1473   52.4465  165.4031 O   0  0  0  0  0  0  0  0  0  0  0  0
    2.1928   51.0289  165.6812 C   0  0  0  0  0  0  0  0  0  0  0  0
    0.7598   50.8960  165.7733 C   0  0  0  0  0  0  0  0  0  0  0  0
    0.1327   49.5082  165.9982 C   0  0  0  0  0  0  0  0  0  0  0  0
   -1.4179   49.4877  166.1207 C   0  0  0  0  0  0  0  0  0  0  0  0
   -2.1136   50.5661  165.2859 C   0  0  2  0  0  0  0  0  0  0  0  0
   -1.5976   51.9777  165.7423 C   0  0  1  0  0  0  0  0  0  0  0  0
   -0.0659   52.0855  165.6551 C   0  0  0  0  0  0  0  0  0  0  0  0
   -2.3176   53.0508  164.9006 C   0  0  0  0  0  0  0  0  0  0  0  0
   -3.8510   52.9949  164.9505 C   0  0  0  0  0  0  0  0  0  0  0  0
   -4.3961   51.6154  164.5561 C   0  0  1  0  0  0  0  0  0  0  0  0
   -3.6897   50.5381  165.4456 C   0  0  1  0  0  0  0  0  0  0  0  0
   -4.5158   49.3015  165.1003 C   0  0  0  0  0  0  0  0  0  0  0  0
   -5.9949   49.8228  165.1797 C   0  0  0  0  0  0  0  0  0  0  0  0
   -5.8848   51.3564  164.9299 C   0  0  2  0  0  0  0  0  0  0  0  0
   -6.8724   51.7626  163.9220 O   0  0  0  0  0  0  0  0  0  0  0  0
   -4.2141   51.3732  163.0122 C   0  0  0  0  0  0  0  0  0  0  0  0
   -0.0380   54.2425  165.3805 H   0  0  0  0  0  0  0  0  0  0  0  0
    2.4217   54.4342  165.2372 H   0  0  0  0  0  0  0  0  0  0  0  0
    4.5541   51.5893  165.4477 H   0  0  0  0  0  0  0  0  0  0  0  0
    2.8245   50.1514  165.7590 H   0  0  0  0  0  0  0  0  0  0  0  0
    0.5517   49.0929  166.9266 H   0  0  0  0  0  0  0  0  0  0  0  0
    0.4143   48.8671  165.1499 H   0  0  0  0  0  0  0  0  0  0  0  0
   -1.6852   49.6394  167.1769 H   0  0  0  0  0  0  0  0  0  0  0  0
   -1.7799   48.5035  165.7885 H   0  0  0  0  0  0  0  0  0  0  0  0
   -1.8621   50.4077  164.2268 H   0  0  0  0  0  0  0  0  0  0  0  0
   -1.8785   52.1236  166.7958 H   0  0  0  0  0  0  0  0  0  0  0  0
   -2.0059   52.9284  163.8529 H   0  0  0  0  0  0  0  0  0  0  0  0
   -2.0004   54.0392  165.2645 H   0  0  0  0  0  0  0  0  0  0  0  0
   -4.2553   53.7466  164.2567 H   0  0  0  0  0  0  0  0  0  0  0  0
   -4.1805   53.2260  165.9742 H   0  0  0  0  0  0  0  0  0  0  0  0
   -3.8736   50.7661  166.5058 H   0  0  0  0  0  0  0  0  0  0  0  0
   -4.3423   48.4956  165.8285 H   0  0  0  0  0  0  0  0  0  0  0  0
   -4.2793   48.9392  164.0889 H   0  0  0  0  0  0  0  0  0  0  0  0
   -6.4251   49.6208  166.1716 H   0  0  0  0  0  0  0  0  0  0  0  0
   -6.6163   49.3471  164.4066 H   0  0  0  0  0  0  0  0  0  0  0  0
   -6.1107   51.9007  165.8587 H   0  0  0  0  0  0  0  0  0  0  0  0
   -6.6659   52.6365  163.6120 H   0  0  0  0  0  0  0  0  0  0  0  0
   -3.1651   51.5530  162.7340 H   0  0  0  0  0  0  0  0  0  0  0  0
   -4.8648   52.0622  162.4537 H   0  0  0  0  0  0  0  0  0  0  0  0
   -4.4849   50.3351  162.7694 H   0  0  0  0  0  0  0  0  0  0  0  0
  1  2  2  0  0  0  0
  1 11  1  0  0  0  0
  2  3  1  0  0  0  0
  3  4  1  0  0  0  0
  3  5  2  0  0  0  0
  5  6  1  0  0  0  0
  6  7  1  0  0  0  0
  6 11  2  0  0  0  0
  7  8  1  0  0  0  0
  8  9  1  0  0  0  0
  9 10  1  0  0  0  0
  9 15  1  0  0  0  0
 10 11  1  0  0  0  0
 10 12  1  0  0  0  0
 12 13  1  0  0  0  0
 13 14  1  0  0  0  0
 14 15  1  0  0  0  0
 14 18  1  0  0  0  0
 14 20  1  0  0  0  0
 15 16  1  0  0  0  0
 16 17  1  0  0  0  0
 17 18  1  0  0  0  0
 18 19  1  0  0  0  0
  1 21  1  0  0  0  0
  2 22  1  0  0  0  0
  4 23  1  0  0  0  0
  5 24  1  0  0  0  0
  7 25  1  0  0  0  0
  7 26  1  0  0  0  0
  8 27  1  0  0  0  0
  8 28  1  0  0  0  0
  9 29  1  0  0  0  0
 10 30  1  0  0  0  0
 12 31  1  0  0  0  0
 12 32  1  0  0  0  0
 13 33  1  0  0  0  0
 13 34  1  0  0  0  0
 15 35  1  0  0  0  0
 16 36  1  0  0  0  0
 16 37  1  0  0  0  0
 17 38  1  0  0  0  0
 17 39  1  0  0  0  0
 18 40  1  0  0  0  0
 19 41  1  0  0  0  0
 20 42  1  0  0  0  0
 20 43  1  0  0  0  0
 20 44  1  0  0  0  0
M  END
$$$$
1qkt_860
  -OEChem-01202217033D

 44 47  0     1  0  0  0  0  0999 V2000
    0.4103   50.1947  164.3723 C   0  0  0  0  0  0  0  0  0  0  0  0
    1.2407   49.2365  164.9763 C   0  0  0  0  0  0  0  0  0  0  0  0
    0.9426   48.7554  166.2580 C   0  0  0  0  0  0  0  0  0  0  0  0
    1.7351   47.8034  166.8066 O   0  0  0  0  0  0  0  0  0  0  0  0
   -0.1791   49.2523  166.9419 C   0  0  0  0  0  0  0  0  0  0  0  0
   -1.0221   50.2211  166.3486 C   0  0  0  0  0  0  0  0  0  0  0  0
   -2.2022   50.6666  167.1424 C   0  0  0  0  0  0  0  0  0  0  0  0
   -2.9867   51.8583  166.5447 C   0  0  0  0  0  0  0  0  0  0  0  0
   -3.0768   51.7392  164.9992 C   0  0  2  0  0  0  0  0  0  0  0  0
   -1.6205   51.7490  164.3934 C   0  0  1  0  0  0  0  0  0  0  0  0
   -0.7528   50.6871  165.0242 C   0  0  0  0  0  0  0  0  0  0  0  0
   -1.6567   51.7650  162.8210 C   0  0  0  0  0  0  0  0  0  0  0  0
   -2.6314   52.8158  162.2053 C   0  0  0  0  0  0  0  0  0  0  0  0
   -4.0680   52.7281  162.8144 C   0  0  1  0  0  0  0  0  0  0  0  0
   -3.9259   52.8828  164.3616 C   0  0  1  0  0  0  0  0  0  0  0  0
   -5.3678   53.1567  164.8437 C   0  0  0  0  0  0  0  0  0  0  0  0
   -6.0081   53.9739  163.6906 C   0  0  0  0  0  0  0  0  0  0  0  0
   -4.9880   53.9533  162.5157 C   0  0  2  0  0  0  0  0  0  0  0  0
   -5.6111   53.9359  161.2287 O   0  0  0  0  0  0  0  0  0  0  0  0
   -4.7700   51.4065  162.3228 C   0  0  0  0  0  0  0  0  0  0  0  0
    0.6746   50.5121  163.4398 H   0  0  0  0  0  0  0  0  0  0  0  0
    2.0599   48.8825  164.4779 H   0  0  0  0  0  0  0  0  0  0  0  0
    1.1348   47.2139  167.3067 H   0  0  0  0  0  0  0  0  0  0  0  0
   -0.3778   48.9045  167.8845 H   0  0  0  0  0  0  0  0  0  0  0  0
   -1.8821   50.9507  168.1499 H   0  0  0  0  0  0  0  0  0  0  0  0
   -2.8819   49.8141  167.2373 H   0  0  0  0  0  0  0  0  0  0  0  0
   -2.4833   52.7916  166.8122 H   0  0  0  0  0  0  0  0  0  0  0  0
   -3.9854   51.8759  166.9900 H   0  0  0  0  0  0  0  0  0  0  0  0
   -3.5543   50.7807  164.7800 H   0  0  0  0  0  0  0  0  0  0  0  0
   -1.1528   52.6963  164.6838 H   0  0  0  0  0  0  0  0  0  0  0  0
   -1.9145   50.7690  162.4561 H   0  0  0  0  0  0  0  0  0  0  0  0
   -0.6651   52.0040  162.4289 H   0  0  0  0  0  0  0  0  0  0  0  0
   -2.6729   52.6791  161.1214 H   0  0  0  0  0  0  0  0  0  0  0  0
   -2.2173   53.8122  162.3849 H   0  0  0  0  0  0  0  0  0  0  0  0
   -3.3732   53.8106  164.5750 H   0  0  0  0  0  0  0  0  0  0  0  0
   -5.3710   53.7220  165.7804 H   0  0  0  0  0  0  0  0  0  0  0  0
   -5.9059   52.2184  165.0012 H   0  0  0  0  0  0  0  0  0  0  0  0
   -6.2091   54.9994  164.0122 H   0  0  0  0  0  0  0  0  0  0  0  0
   -6.9569   53.5183  163.3936 H   0  0  0  0  0  0  0  0  0  0  0  0
   -4.3906   54.8690  162.5578 H   0  0  0  0  0  0  0  0  0  0  0  0
   -6.0522   54.8076  161.1384 H   0  0  0  0  0  0  0  0  0  0  0  0
   -4.2237   50.5098  162.6084 H   0  0  0  0  0  0  0  0  0  0  0  0
   -4.8396   51.4075  161.2343 H   0  0  0  0  0  0  0  0  0  0  0  0
   -5.7806   51.3111  162.7199 H   0  0  0  0  0  0  0  0  0  0  0  0
  1  2  2  0  0  0  0
  1 11  1  0  0  0  0
  2  3  1  0  0  0  0
  3  4  1  0  0  0  0
  3  5  2  0  0  0  0
  5  6  1  0  0  0  0
  6  7  1  0  0  0  0
  6 11  2  0  0  0  0
  7  8  1  0  0  0  0
  8  9  1  0  0  0  0
  9 10  1  0  0  0  0
  9 15  1  0  0  0  0
 10 11  1  0  0  0  0
 10 12  1  0  0  0  0
 12 13  1  0  0  0  0
 13 14  1  0  0  0  0
 14 15  1  0  0  0  0
 14 18  1  0  0  0  0
 14 20  1  0  0  0  0
 15 16  1  0  0  0  0
 16 17  1  0  0  0  0
 17 18  1  0  0  0  0
 18 19  1  0  0  0  0
  1 21  1  0  0  0  0
  2 22  1  0  0  0  0
  4 23  1  0  0  0  0
  5 24  1  0  0  0  0
  7 25  1  0  0  0  0
  7 26  1  0  0  0  0
  8 27  1  0  0  0  0
  8 28  1  0  0  0  0
  9 29  1  0  0  0  0
 10 30  1  0  0  0  0
 12 31  1  0  0  0  0
 12 32  1  0  0  0  0
 13 33  1  0  0  0  0
 13 34  1  0  0  0  0
 15 35  1  0  0  0  0
 16 36  1  0  0  0  0
 16 37  1  0  0  0  0
 17 38  1  0  0  0  0
 17 39  1  0  0  0  0
 18 40  1  0  0  0  0
 19 41  1  0  0  0  0
 20 42  1  0  0  0  0
 20 43  1  0  0  0  0
 20 44  1  0  0  0  0
M  END
$$$$
1qkt_862
  -OEChem-01202217033D

 44 47  0     1  0  0  0  0  0999 V2000
   -3.9985   53.9688  162.9274 C   0  0  0  0  0  0  0  0  0  0  0  0
   -4.3454   54.5940  161.7166 C   0  0  0  0  0  0  0  0  0  0  0  0
   -3.6327   54.3079  160.5432 C   0  0  0  0  0  0  0  0  0  0  0  0
   -3.9723   54.9298  159.3846 O   0  0  0  0  0  0  0  0  0  0  0  0
   -2.5718   53.3868  160.5908 C   0  0  0  0  0  0  0  0  0  0  0  0
   -2.2086   52.7568  161.8060 C   0  0  0  0  0  0  0  0  0  0  0  0
   -1.0437   51.8328  161.7803 C   0  0  0  0  0  0  0  0  0  0  0  0
   -0.5126   51.3809  163.1593 C   0  0  0  0  0  0  0  0  0  0  0  0
   -1.7074   51.0438  164.0836 C   0  0  2  0  0  0  0  0  0  0  0  0
   -2.5853   52.3384  164.2986 C   0  0  1  0  0  0  0  0  0  0  0  0
   -2.9603   53.0024  162.9947 C   0  0  0  0  0  0  0  0  0  0  0  0
   -3.7801   52.0210  165.2689 C   0  0  0  0  0  0  0  0  0  0  0  0
   -3.3582   51.3019  166.5887 C   0  0  0  0  0  0  0  0  0  0  0  0
   -2.4824   50.0312  166.3358 C   0  0  1  0  0  0  0  0  0  0  0  0
   -1.2637   50.4713  165.4643 C   0  0  1  0  0  0  0  0  0  0  0  0
   -0.2819   49.2827  165.5618 C   0  0  0  0  0  0  0  0  0  0  0  0
   -0.4895   48.7478  167.0018 C   0  0  0  0  0  0  0  0  0  0  0  0
   -1.7169   49.5017  167.5871 C   0  0  2  0  0  0  0  0  0  0  0  0
   -2.5044   48.6998  168.4671 O   0  0  0  0  0  0  0  0  0  0  0  0
   -3.3787   48.8817  165.7324 C   0  0  0  0  0  0  0  0  0  0  0  0
   -4.5203   54.2404  163.7590 H   0  0  0  0  0  0  0  0  0  0  0  0
   -5.1115   55.2694  161.6913 H   0  0  0  0  0  0  0  0  0  0  0  0
   -3.1843   55.4482  159.1103 H   0  0  0  0  0  0  0  0  0  0  0  0
   -2.0558   53.1877  159.7309 H   0  0  0  0  0  0  0  0  0  0  0  0
   -0.2142   52.3067  161.2559 H   0  0  0  0  0  0  0  0  0  0  0  0
   -1.3371   50.9477  161.2135 H   0  0  0  0  0  0  0  0  0  0  0  0
    0.0948   52.1738  163.6070 H   0  0  0  0  0  0  0  0  0  0  0  0
    0.1281   50.5049  163.0180 H   0  0  0  0  0  0  0  0  0  0  0  0
   -2.3006   50.2863  163.5643 H   0  0  0  0  0  0  0  0  0  0  0  0
   -1.9651   53.0768  164.8201 H   0  0  0  0  0  0  0  0  0  0  0  0
   -4.5248   51.4216  164.7407 H   0  0  0  0  0  0  0  0  0  0  0  0
   -4.2682   52.9493  165.5740 H   0  0  0  0  0  0  0  0  0  0  0  0
   -4.2531   51.0348  167.1556 H   0  0  0  0  0  0  0  0  0  0  0  0
   -2.7977   52.0192  167.1957 H   0  0  0  0  0  0  0  0  0  0  0  0
   -0.7458   51.3023  165.9669 H   0  0  0  0  0  0  0  0  0  0  0  0
    0.7515   49.6028  165.4016 H   0  0  0  0  0  0  0  0  0  0  0  0
   -0.5272   48.5160  164.8213 H   0  0  0  0  0  0  0  0  0  0  0  0
    0.3965   48.9229  167.6185 H   0  0  0  0  0  0  0  0  0  0  0  0
   -0.6754   47.6723  166.9633 H   0  0  0  0  0  0  0  0  0  0  0  0
   -1.3554   50.3501  168.1775 H   0  0  0  0  0  0  0  0  0  0  0  0
   -1.9969   48.6517  169.3044 H   0  0  0  0  0  0  0  0  0  0  0  0
   -3.8497   49.1685  164.7946 H   0  0  0  0  0  0  0  0  0  0  0  0
   -4.1798   48.6211  166.4254 H   0  0  0  0  0  0  0  0  0  0  0  0
   -2.8039   47.9758  165.5438 H   0  0  0  0  0  0  0  0  0  0  0  0
  1  2  2  0  0  0  0
  1 11  1  0  0  0  0
  2  3  1  0  0  0  0
  3  4  1  0  0  0  0
  3  5  2  0  0  0  0
  5  6  1  0  0  0  0
  6  7  1  0  0  0  0
  6 11  2  0  0  0  0
  7  8  1  0  0  0  0
  8  9  1  0  0  0  0
  9 10  1  0  0  0  0
  9 15  1  0  0  0  0
 10 11  1  0  0  0  0
 10 12  1  0  0  0  0
 12 13  1  0  0  0  0
 13 14  1  0  0  0  0
 14 15  1  0  0  0  0
 14 18  1  0  0  0  0
 14 20  1  0  0  0  0
 15 16  1  0  0  0  0
 16 17  1  0  0  0  0
 17 18  1  0  0  0  0
 18 19  1  0  0  0  0
  1 21  1  0  0  0  0
  2 22  1  0  0  0  0
  4 23  1  0  0  0  0
  5 24  1  0  0  0  0
  7 25  1  0  0  0  0
  7 26  1  0  0  0  0
  8 27  1  0  0  0  0
  8 28  1  0  0  0  0
  9 29  1  0  0  0  0
 10 30  1  0  0  0  0
 12 31  1  0  0  0  0
 12 32  1  0  0  0  0
 13 33  1  0  0  0  0
 13 34  1  0  0  0  0
 15 35  1  0  0  0  0
 16 36  1  0  0  0  0
 16 37  1  0  0  0  0
 17 38  1  0  0  0  0
 17 39  1  0  0  0  0
 18 40  1  0  0  0  0
 19 41  1  0  0  0  0
 20 42  1  0  0  0  0
 20 43  1  0  0  0  0
 20 44  1  0  0  0  0
M  END
$$$$
1qkt_866
  -OEChem-01202217033D

 44 47  0     1  0  0  0  0  0999 V2000
    0.4949   50.2561  164.4542 C   0  0  0  0  0  0  0  0  0  0  0  0
    1.3334   49.2958  165.0480 C   0  0  0  0  0  0  0  0  0  0  0  0
    0.9915   48.7334  166.2826 C   0  0  0  0  0  0  0  0  0  0  0  0
    1.7899   47.7770  166.8098 O   0  0  0  0  0  0  0  0  0  0  0  0
   -0.1635   49.1676  166.9512 C   0  0  0  0  0  0  0  0  0  0  0  0
   -1.0025   50.1509  166.3785 C   0  0  0  0  0  0  0  0  0  0  0  0
   -2.1726   50.5922  167.1861 C   0  0  0  0  0  0  0  0  0  0  0  0
   -2.9235   51.8221  166.6241 C   0  0  0  0  0  0  0  0  0  0  0  0
   -3.0419   51.7214  165.0819 C   0  0  2  0  0  0  0  0  0  0  0  0
   -1.6024   51.7054  164.4393 C   0  0  1  0  0  0  0  0  0  0  0  0
   -0.7134   50.6644  165.0774 C   0  0  0  0  0  0  0  0  0  0  0  0
   -1.7029   51.6472  162.8715 C   0  0  0  0  0  0  0  0  0  0  0  0
   -2.6649   52.7125  162.2551 C   0  0  0  0  0  0  0  0  0  0  0  0
   -4.0815   52.6977  162.9169 C   0  0  1  0  0  0  0  0  0  0  0  0
   -3.8824   52.8786  164.4547 C   0  0  1  0  0  0  0  0  0  0  0  0
   -5.2954   53.2052  164.9800 C   0  0  0  0  0  0  0  0  0  0  0  0
   -5.9254   54.0567  163.8471 C   0  0  0  0  0  0  0  0  0  0  0  0
   -4.9690   53.9485  162.6255 C   0  0  2  0  0  0  0  0  0  0  0  0
   -5.6818   53.9128  161.3879 O   0  0  0  0  0  0  0  0  0  0  0  0
   -4.8544   51.3993  162.4706 C   0  0  0  0  0  0  0  0  0  0  0  0
    0.7958   50.6413  163.5593 H   0  0  0  0  0  0  0  0  0  0  0  0
    2.1868   48.9983  164.5766 H   0  0  0  0  0  0  0  0  0  0  0  0
    1.1988   47.1770  167.3085 H   0  0  0  0  0  0  0  0  0  0  0  0
   -0.3908   48.7758  167.8689 H   0  0  0  0  0  0  0  0  0  0  0  0
   -1.8441   50.8412  168.2009 H   0  0  0  0  0  0  0  0  0  0  0  0
   -2.8681   49.7539  167.2594 H   0  0  0  0  0  0  0  0  0  0  0  0
   -2.3754   52.7313  166.8916 H   0  0  0  0  0  0  0  0  0  0  0  0
   -3.9111   51.8732  167.0908 H   0  0  0  0  0  0  0  0  0  0  0  0
   -3.5443   50.7714  164.8679 H   0  0  0  0  0  0  0  0  0  0  0  0
   -1.1231   52.6621  164.6703 H   0  0  0  0  0  0  0  0  0  0  0  0
   -2.0170   50.6482  162.5672 H   0  0  0  0  0  0  0  0  0  0  0  0
   -0.7235   51.8300  162.4198 H   0  0  0  0  0  0  0  0  0  0  0  0
   -2.7482   52.5388  161.1811 H   0  0  0  0  0  0  0  0  0  0  0  0
   -2.2065   53.6981  162.3852 H   0  0  0  0  0  0  0  0  0  0  0  0
   -3.2962   53.7937  164.6363 H   0  0  0  0  0  0  0  0  0  0  0  0
   -5.2612   53.7623  165.9198 H   0  0  0  0  0  0  0  0  0  0  0  0
   -5.8716   52.2872  165.1369 H   0  0  0  0  0  0  0  0  0  0  0  0
   -6.0276   55.0975  164.1664 H   0  0  0  0  0  0  0  0  0  0  0  0
   -6.9237   53.6781  163.5984 H   0  0  0  0  0  0  0  0  0  0  0  0
   -4.3328   54.8394  162.5980 H   0  0  0  0  0  0  0  0  0  0  0  0
   -5.0013   53.7497  160.6992 H   0  0  0  0  0  0  0  0  0  0  0  0
   -4.3508   50.4820  162.7662 H   0  0  0  0  0  0  0  0  0  0  0  0
   -4.9482   51.3739  161.3861 H   0  0  0  0  0  0  0  0  0  0  0  0
   -5.8661   51.3635  162.8864 H   0  0  0  0  0  0  0  0  0  0  0  0
  1  2  2  0  0  0  0
  1 11  1  0  0  0  0
  2  3  1  0  0  0  0
  3  4  1  0  0  0  0
  3  5  2  0  0  0  0
  5  6  1  0  0  0  0
  6  7  1  0  0  0  0
  6 11  2  0  0  0  0
  7  8  1  0  0  0  0
  8  9  1  0  0  0  0
  9 10  1  0  0  0  0
  9 15  1  0  0  0  0
 10 11  1  0  0  0  0
 10 12  1  0  0  0  0
 12 13  1  0  0  0  0
 13 14  1  0  0  0  0
 14 15  1  0  0  0  0
 14 18  1  0  0  0  0
 14 20  1  0  0  0  0
 15 16  1  0  0  0  0
 16 17  1  0  0  0  0
 17 18  1  0  0  0  0
 18 19  1  0  0  0  0
  1 21  1  0  0  0  0
  2 22  1  0  0  0  0
  4 23  1  0  0  0  0
  5 24  1  0  0  0  0
  7 25  1  0  0  0  0
  7 26  1  0  0  0  0
  8 27  1  0  0  0  0
  8 28  1  0  0  0  0
  9 29  1  0  0  0  0
 10 30  1  0  0  0  0
 12 31  1  0  0  0  0
 12 32  1  0  0  0  0
 13 33  1  0  0  0  0
 13 34  1  0  0  0  0
 15 35  1  0  0  0  0
 16 36  1  0  0  0  0
 16 37  1  0  0  0  0
 17 38  1  0  0  0  0
 17 39  1  0  0  0  0
 18 40  1  0  0  0  0
 19 41  1  0  0  0  0
 20 42  1  0  0  0  0
 20 43  1  0  0  0  0
 20 44  1  0  0  0  0
M  END
$$$$
1qkt_867
  -OEChem-01202217033D

 44 47  0     1  0  0  0  0  0999 V2000
   -3.4856   53.6799  159.7770 C   0  0  0  0  0  0  0  0  0  0  0  0
   -3.6294   54.7833  158.9125 C   0  0  0  0  0  0  0  0  0  0  0  0
   -4.6629   55.7017  159.1277 C   0  0  0  0  0  0  0  0  0  0  0  0
   -4.8075   56.7905  158.3194 O   0  0  0  0  0  0  0  0  0  0  0  0
   -5.5842   55.4874  160.1597 C   0  0  0  0  0  0  0  0  0  0  0  0
   -5.4545   54.3784  161.0332 C   0  0  0  0  0  0  0  0  0  0  0  0
   -6.4830   54.2293  162.0988 C   0  0  0  0  0  0  0  0  0  0  0  0
   -6.4235   52.9071  162.9084 C   0  0  0  0  0  0  0  0  0  0  0  0
   -4.9505   52.5087  163.1762 C   0  0  2  0  0  0  0  0  0  0  0  0
   -4.1882   52.3048  161.8079 C   0  0  1  0  0  0  0  0  0  0  0  0
   -4.3540   53.4852  160.8805 C   0  0  0  0  0  0  0  0  0  0  0  0
   -2.7069   51.8486  162.0797 C   0  0  0  0  0  0  0  0  0  0  0  0
   -2.5884   50.6415  163.0597 C   0  0  0  0  0  0  0  0  0  0  0  0
   -3.3637   50.8516  164.4003 C   0  0  1  0  0  0  0  0  0  0  0  0
   -4.8409   51.2046  164.0200 C   0  0  1  0  0  0  0  0  0  0  0  0
   -5.6156   51.0644  165.3468 C   0  0  0  0  0  0  0  0  0  0  0  0
   -4.9002   49.8902  166.0644 C   0  0  0  0  0  0  0  0  0  0  0  0
   -3.6233   49.5580  165.2416 C   0  0  2  0  0  0  0  0  0  0  0  0
   -2.5585   49.1360  166.1007 O   0  0  0  0  0  0  0  0  0  0  0  0
   -2.6150   51.9283  165.2773 C   0  0  0  0  0  0  0  0  0  0  0  0
   -2.7251   53.0314  159.5763 H   0  0  0  0  0  0  0  0  0  0  0  0
   -2.9829   54.9023  158.1282 H   0  0  0  0  0  0  0  0  0  0  0  0
   -3.9100   57.2010  158.2563 H   0  0  0  0  0  0  0  0  0  0  0  0
   -6.3618   56.1385  160.2780 H   0  0  0  0  0  0  0  0  0  0  0  0
   -7.4828   54.3006  161.6563 H   0  0  0  0  0  0  0  0  0  0  0  0
   -6.3658   55.0585  162.7964 H   0  0  0  0  0  0  0  0  0  0  0  0
   -6.9353   52.1088  162.3641 H   0  0  0  0  0  0  0  0  0  0  0  0
   -6.9583   53.0571  163.8543 H   0  0  0  0  0  0  0  0  0  0  0  0
   -4.4980   53.3321  163.7245 H   0  0  0  0  0  0  0  0  0  0  0  0
   -4.6662   51.4710  161.2792 H   0  0  0  0  0  0  0  0  0  0  0  0
   -2.1269   52.6926  162.4564 H   0  0  0  0  0  0  0  0  0  0  0  0
   -2.2407   51.5233  161.1482 H   0  0  0  0  0  0  0  0  0  0  0  0
   -1.5290   50.4471  163.2670 H   0  0  0  0  0  0  0  0  0  0  0  0
   -2.9870   49.7553  162.5492 H   0  0  0  0  0  0  0  0  0  0  0  0
   -5.2404   50.4047  163.3790 H   0  0  0  0  0  0  0  0  0  0  0  0
   -6.6755   50.8371  165.1720 H   0  0  0  0  0  0  0  0  0  0  0  0
   -5.5463   51.9881  165.9334 H   0  0  0  0  0  0  0  0  0  0  0  0
   -5.5505   49.0143  166.1338 H   0  0  0  0  0  0  0  0  0  0  0  0
   -4.6234   50.2151  167.0667 H   0  0  0  0  0  0  0  0  0  0  0  0
   -3.8479   48.7209  164.5691 H   0  0  0  0  0  0  0  0  0  0  0  0
   -1.9759   48.5761  165.5454 H   0  0  0  0  0  0  0  0  0  0  0  0
   -2.5226   52.8857  164.7669 H   0  0  0  0  0  0  0  0  0  0  0  0
   -1.6030   51.5898  165.5097 H   0  0  0  0  0  0  0  0  0  0  0  0
   -3.1234   52.1140  166.2215 H   0  0  0  0  0  0  0  0  0  0  0  0
  1  2  2  0  0  0  0
  1 11  1  0  0  0  0
  2  3  1  0  0  0  0
  3  4  1  0  0  0  0
  3  5  2  0  0  0  0
  5  6  1  0  0  0  0
  6  7  1  0  0  0  0
  6 11  2  0  0  0  0
  7  8  1  0  0  0  0
  8  9  1  0  0  0  0
  9 10  1  0  0  0  0
  9 15  1  0  0  0  0
 10 11  1  0  0  0  0
 10 12  1  0  0  0  0
 12 13  1  0  0  0  0
 13 14  1  0  0  0  0
 14 15  1  0  0  0  0
 14 18  1  0  0  0  0
 14 20  1  0  0  0  0
 15 16  1  0  0  0  0
 16 17  1  0  0  0  0
 17 18  1  0  0  0  0
 18 19  1  0  0  0  0
  1 21  1  0  0  0  0
  2 22  1  0  0  0  0
  4 23  1  0  0  0  0
  5 24  1  0  0  0  0
  7 25  1  0  0  0  0
  7 26  1  0  0  0  0
  8 27  1  0  0  0  0
  8 28  1  0  0  0  0
  9 29  1  0  0  0  0
 10 30  1  0  0  0  0
 12 31  1  0  0  0  0
 12 32  1  0  0  0  0
 13 33  1  0  0  0  0
 13 34  1  0  0  0  0
 15 35  1  0  0  0  0
 16 36  1  0  0  0  0
 16 37  1  0  0  0  0
 17 38  1  0  0  0  0
 17 39  1  0  0  0  0
 18 40  1  0  0  0  0
 19 41  1  0  0  0  0
 20 42  1  0  0  0  0
 20 43  1  0  0  0  0
 20 44  1  0  0  0  0
M  END
$$$$
1qkt_873
  -OEChem-01202217033D

 44 47  0     1  0  0  0  0  0999 V2000
    0.8898   49.9843  165.0984 C   0  0  0  0  0  0  0  0  0  0  0  0
    2.2022   50.1694  165.5670 C   0  0  0  0  0  0  0  0  0  0  0  0
    2.6651   51.4590  165.8641 C   0  0  0  0  0  0  0  0  0  0  0  0
    3.9280   51.6369  166.3232 O   0  0  0  0  0  0  0  0  0  0  0  0
    1.8227   52.5629  165.6520 C   0  0  0  0  0  0  0  0  0  0  0  0
    0.5074   52.3901  165.1580 C   0  0  0  0  0  0  0  0  0  0  0  0
   -0.2959   53.6197  164.9029 C   0  0  0  0  0  0  0  0  0  0  0  0
   -1.6240   53.3845  164.1418 C   0  0  0  0  0  0  0  0  0  0  0  0
   -2.3265   52.1097  164.6744 C   0  0  2  0  0  0  0  0  0  0  0  0
   -1.4061   50.8571  164.4173 C   0  0  1  0  0  0  0  0  0  0  0  0
   -0.0019   51.0749  164.9319 C   0  0  0  0  0  0  0  0  0  0  0  0
   -2.1259   49.5495  164.9134 C   0  0  0  0  0  0  0  0  0  0  0  0
   -3.5899   49.3803  164.3947 C   0  0  0  0  0  0  0  0  0  0  0  0
   -4.4700   50.6457  164.6554 C   0  0  1  0  0  0  0  0  0  0  0  0
   -3.7264   51.8683  164.0289 C   0  0  1  0  0  0  0  0  0  0  0  0
   -4.7925   52.9852  164.0062 C   0  0  0  0  0  0  0  0  0  0  0  0
   -6.1242   52.2321  163.7466 C   0  0  0  0  0  0  0  0  0  0  0  0
   -5.7984   50.7162  163.8385 C   0  0  2  0  0  0  0  0  0  0  0  0
   -6.8805   49.9617  164.3829 O   0  0  0  0  0  0  0  0  0  0  0  0
   -4.7929   50.7511  166.1943 C   0  0  0  0  0  0  0  0  0  0  0  0
    0.6046   49.0298  164.8804 H   0  0  0  0  0  0  0  0  0  0  0  0
    2.8171   49.3618  165.6927 H   0  0  0  0  0  0  0  0  0  0  0  0
    3.8285   51.7855  167.2847 H   0  0  0  0  0  0  0  0  0  0  0  0
    2.1835   53.5021  165.8444 H   0  0  0  0  0  0  0  0  0  0  0  0
    0.2986   54.3303  164.3223 H   0  0  0  0  0  0  0  0  0  0  0  0
   -0.5176   54.0856  165.8661 H   0  0  0  0  0  0  0  0  0  0  0  0
   -1.4253   53.2749  163.0718 H   0  0  0  0  0  0  0  0  0  0  0  0
   -2.2636   54.2602  164.2764 H   0  0  0  0  0  0  0  0  0  0  0  0
   -2.4544   52.2494  165.7507 H   0  0  0  0  0  0  0  0  0  0  0  0
   -1.2909   50.7421  163.3338 H   0  0  0  0  0  0  0  0  0  0  0  0
   -2.1153   49.5239  166.0045 H   0  0  0  0  0  0  0  0  0  0  0  0
   -1.5821   48.6692  164.5694 H   0  0  0  0  0  0  0  0  0  0  0  0
   -4.0438   48.5047  164.8687 H   0  0  0  0  0  0  0  0  0  0  0  0
   -3.5498   49.1751  163.3206 H   0  0  0  0  0  0  0  0  0  0  0  0
   -3.5216   51.6523  162.9698 H   0  0  0  0  0  0  0  0  0  0  0  0
   -4.5870   53.7105  163.2135 H   0  0  0  0  0  0  0  0  0  0  0  0
   -4.8204   53.5117  164.9640 H   0  0  0  0  0  0  0  0  0  0  0  0
   -6.5239   52.4780  162.7606 H   0  0  0  0  0  0  0  0  0  0  0  0
   -6.8662   52.5155  164.4950 H   0  0  0  0  0  0  0  0  0  0  0  0
   -5.6310   50.3398  162.8236 H   0  0  0  0  0  0  0  0  0  0  0  0
   -6.6840   49.0291  164.1489 H   0  0  0  0  0  0  0  0  0  0  0  0
   -3.8945   50.8234  166.8038 H   0  0  0  0  0  0  0  0  0  0  0  0
   -5.3362   49.8633  166.5246 H   0  0  0  0  0  0  0  0  0  0  0  0
   -5.4115   51.6190  166.4238 H   0  0  0  0  0  0  0  0  0  0  0  0
  1  2  2  0  0  0  0
  1 11  1  0  0  0  0
  2  3  1  0  0  0  0
  3  4  1  0  0  0  0
  3  5  2  0  0  0  0
  5  6  1  0  0  0  0
  6  7  1  0  0  0  0
  6 11  2  0  0  0  0
  7  8  1  0  0  0  0
  8  9  1  0  0  0  0
  9 10  1  0  0  0  0
  9 15  1  0  0  0  0
 10 11  1  0  0  0  0
 10 12  1  0  0  0  0
 12 13  1  0  0  0  0
 13 14  1  0  0  0  0
 14 15  1  0  0  0  0
 14 18  1  0  0  0  0
 14 20  1  0  0  0  0
 15 16  1  0  0  0  0
 16 17  1  0  0  0  0
 17 18  1  0  0  0  0
 18 19  1  0  0  0  0
  1 21  1  0  0  0  0
  2 22  1  0  0  0  0
  4 23  1  0  0  0  0
  5 24  1  0  0  0  0
  7 25  1  0  0  0  0
  7 26  1  0  0  0  0
  8 27  1  0  0  0  0
  8 28  1  0  0  0  0
  9 29  1  0  0  0  0
 10 30  1  0  0  0  0
 12 31  1  0  0  0  0
 12 32  1  0  0  0  0
 13 33  1  0  0  0  0
 13 34  1  0  0  0  0
 15 35  1  0  0  0  0
 16 36  1  0  0  0  0
 16 37  1  0  0  0  0
 17 38  1  0  0  0  0
 17 39  1  0  0  0  0
 18 40  1  0  0  0  0
 19 41  1  0  0  0  0
 20 42  1  0  0  0  0
 20 43  1  0  0  0  0
 20 44  1  0  0  0  0
M  END
$$$$
1qkt_875
  -OEChem-01202217033D

 44 47  0     1  0  0  0  0  0999 V2000
    0.3751   50.2034  164.2625 C   0  0  0  0  0  0  0  0  0  0  0  0
    1.2115   49.2458  164.8572 C   0  0  0  0  0  0  0  0  0  0  0  0
    0.9330   48.7769  166.1482 C   0  0  0  0  0  0  0  0  0  0  0  0
    1.7441   47.8766  166.7448 O   0  0  0  0  0  0  0  0  0  0  0  0
   -0.1890   49.2559  166.8374 C   0  0  0  0  0  0  0  0  0  0  0  0
   -1.0373   50.2233  166.2531 C   0  0  0  0  0  0  0  0  0  0  0  0
   -2.2077   50.6622  167.0621 C   0  0  0  0  0  0  0  0  0  0  0  0
   -2.9915   51.8620  166.4817 C   0  0  0  0  0  0  0  0  0  0  0  0
   -3.0970   51.7542  164.9368 C   0  0  2  0  0  0  0  0  0  0  0  0
   -1.6479   51.7681  164.3157 C   0  0  1  0  0  0  0  0  0  0  0  0
   -0.7767   50.6996  164.9306 C   0  0  0  0  0  0  0  0  0  0  0  0
   -1.6991   51.7951  162.7433 C   0  0  0  0  0  0  0  0  0  0  0  0
   -2.6796   52.8502  162.1456 C   0  0  0  0  0  0  0  0  0  0  0  0
   -4.1095   52.7603  162.7712 C   0  0  1  0  0  0  0  0  0  0  0  0
   -3.9523   52.9019  164.3171 C   0  0  1  0  0  0  0  0  0  0  0  0
   -5.3898   53.1714  164.8141 C   0  0  0  0  0  0  0  0  0  0  0  0
   -6.0384   53.9968  163.6723 C   0  0  0  0  0  0  0  0  0  0  0  0
   -5.0289   53.9894  162.4905 C   0  0  2  0  0  0  0  0  0  0  0  0
   -5.6634   53.9761  161.2122 O   0  0  0  0  0  0  0  0  0  0  0  0
   -4.8129   51.4391  162.2785 C   0  0  0  0  0  0  0  0  0  0  0  0
    0.6388   50.5341  163.3342 H   0  0  0  0  0  0  0  0  0  0  0  0
    2.0328   48.8984  164.3557 H   0  0  0  0  0  0  0  0  0  0  0  0
    2.6490   48.2105  166.5699 H   0  0  0  0  0  0  0  0  0  0  0  0
   -0.3814   48.9002  167.7776 H   0  0  0  0  0  0  0  0  0  0  0  0
   -1.8741   50.9365  168.0675 H   0  0  0  0  0  0  0  0  0  0  0  0
   -2.8868   49.8096  167.1582 H   0  0  0  0  0  0  0  0  0  0  0  0
   -2.4830   52.7910  166.7546 H   0  0  0  0  0  0  0  0  0  0  0  0
   -3.9866   51.8790  166.9345 H   0  0  0  0  0  0  0  0  0  0  0  0
   -3.5769   50.7973  164.7156 H   0  0  0  0  0  0  0  0  0  0  0  0
   -1.1779   52.7145  164.6061 H   0  0  0  0  0  0  0  0  0  0  0  0
   -1.9581   50.8004  162.3728 H   0  0  0  0  0  0  0  0  0  0  0  0
   -0.7110   52.0420  162.3465 H   0  0  0  0  0  0  0  0  0  0  0  0
   -2.7340   52.7189  161.0605 H   0  0  0  0  0  0  0  0  0  0  0  0
   -2.2606   53.8444  162.3260 H   0  0  0  0  0  0  0  0  0  0  0  0
   -3.3965   53.8268  164.5333 H   0  0  0  0  0  0  0  0  0  0  0  0
   -5.3882   53.7307  165.7537 H   0  0  0  0  0  0  0  0  0  0  0  0
   -5.9265   52.2316  164.9692 H   0  0  0  0  0  0  0  0  0  0  0  0
   -6.2360   55.0196  163.9990 H   0  0  0  0  0  0  0  0  0  0  0  0
   -6.9883   53.5444  163.3765 H   0  0  0  0  0  0  0  0  0  0  0  0
   -4.4361   54.9098  162.5330 H   0  0  0  0  0  0  0  0  0  0  0  0
   -6.1054   54.8485  161.1353 H   0  0  0  0  0  0  0  0  0  0  0  0
   -4.2700   50.5382  162.5623 H   0  0  0  0  0  0  0  0  0  0  0  0
   -4.8811   51.4438  161.1905 H   0  0  0  0  0  0  0  0  0  0  0  0
   -5.8248   51.3437  162.6736 H   0  0  0  0  0  0  0  0  0  0  0  0
  1  2  2  0  0  0  0
  1 11  1  0  0  0  0
  2  3  1  0  0  0  0
  3  4  1  0  0  0  0
  3  5  2  0  0  0  0
  5  6  1  0  0  0  0
  6  7  1  0  0  0  0
  6 11  2  0  0  0  0
  7  8  1  0  0  0  0
  8  9  1  0  0  0  0
  9 10  1  0  0  0  0
  9 15  1  0  0  0  0
 10 11  1  0  0  0  0
 10 12  1  0  0  0  0
 12 13  1  0  0  0  0
 13 14  1  0  0  0  0
 14 15  1  0  0  0  0
 14 18  1  0  0  0  0
 14 20  1  0  0  0  0
 15 16  1  0  0  0  0
 16 17  1  0  0  0  0
 17 18  1  0  0  0  0
 18 19  1  0  0  0  0
  1 21  1  0  0  0  0
  2 22  1  0  0  0  0
  4 23  1  0  0  0  0
  5 24  1  0  0  0  0
  7 25  1  0  0  0  0
  7 26  1  0  0  0  0
  8 27  1  0  0  0  0
  8 28  1  0  0  0  0
  9 29  1  0  0  0  0
 10 30  1  0  0  0  0
 12 31  1  0  0  0  0
 12 32  1  0  0  0  0
 13 33  1  0  0  0  0
 13 34  1  0  0  0  0
 15 35  1  0  0  0  0
 16 36  1  0  0  0  0
 16 37  1  0  0  0  0
 17 38  1  0  0  0  0
 17 39  1  0  0  0  0
 18 40  1  0  0  0  0
 19 41  1  0  0  0  0
 20 42  1  0  0  0  0
 20 43  1  0  0  0  0
 20 44  1  0  0  0  0
M  END
$$$$
1qkt_977
  -OEChem-01202217033D

 44 47  0     1  0  0  0  0  0999 V2000
    0.8266   53.4398  165.1753 C   0  0  0  0  0  0  0  0  0  0  0  0
    2.2302   53.4405  165.2508 C   0  0  0  0  0  0  0  0  0  0  0  0
    2.9343   52.2275  165.2447 C   0  0  0  0  0  0  0  0  0  0  0  0
    4.2871   52.2178  165.3051 O   0  0  0  0  0  0  0  0  0  0  0  0
    2.2249   51.0160  165.1951 C   0  0  0  0  0  0  0  0  0  0  0  0
    0.8100   51.0015  165.1378 C   0  0  0  0  0  0  0  0  0  0  0  0
    0.1370   49.6709  165.1453 C   0  0  0  0  0  0  0  0  0  0  0  0
   -1.3986   49.7190  165.3371 C   0  0  0  0  0  0  0  0  0  0  0  0
   -2.0090   50.8738  164.5002 C   0  0  2  0  0  0  0  0  0  0  0  0
   -1.4220   52.2460  165.0086 C   0  0  1  0  0  0  0  0  0  0  0  0
    0.0863   52.2322  165.0698 C   0  0  0  0  0  0  0  0  0  0  0  0
   -2.0670   53.4384  164.2136 C   0  0  0  0  0  0  0  0  0  0  0  0
   -3.6249   53.4019  164.1631 C   0  0  0  0  0  0  0  0  0  0  0  0
   -4.1708   52.0307  163.6480 C   0  0  1  0  0  0  0  0  0  0  0  0
   -3.5685   50.9171  164.5635 C   0  0  1  0  0  0  0  0  0  0  0  0
   -4.4159   49.6680  164.2369 C   0  0  0  0  0  0  0  0  0  0  0  0
   -5.8316   50.2376  163.9614 C   0  0  0  0  0  0  0  0  0  0  0  0
   -5.6898   51.7840  163.9038 C   0  0  2  0  0  0  0  0  0  0  0  0
   -6.5533   52.3753  162.9328 O   0  0  0  0  0  0  0  0  0  0  0  0
   -3.8732   51.8897  162.1054 C   0  0  0  0  0  0  0  0  0  0  0  0
    0.3601   54.3457  165.1989 H   0  0  0  0  0  0  0  0  0  0  0  0
    2.7355   54.3276  165.3127 H   0  0  0  0  0  0  0  0  0  0  0  0
    4.5791   52.7201  164.5195 H   0  0  0  0  0  0  0  0  0  0  0  0
    2.7505   50.1371  165.2110 H   0  0  0  0  0  0  0  0  0  0  0  0
    0.5515   49.0564  165.9506 H   0  0  0  0  0  0  0  0  0  0  0  0
    0.3610   49.1723  164.1973 H   0  0  0  0  0  0  0  0  0  0  0  0
   -1.6327   49.8660  166.3961 H   0  0  0  0  0  0  0  0  0  0  0  0
   -1.8203   48.7594  165.0288 H   0  0  0  0  0  0  0  0  0  0  0  0
   -1.7005   50.7076  163.4637 H   0  0  0  0  0  0  0  0  0  0  0  0
   -1.7397   52.3775  166.0482 H   0  0  0  0  0  0  0  0  0  0  0  0
   -1.6596   53.4603  163.2016 H   0  0  0  0  0  0  0  0  0  0  0  0
   -1.8074   54.3845  164.6851 H   0  0  0  0  0  0  0  0  0  0  0  0
   -3.9893   54.2132  163.5278 H   0  0  0  0  0  0  0  0  0  0  0  0
   -4.0009   53.5943  165.1722 H   0  0  0  0  0  0  0  0  0  0  0  0
   -3.8086   51.1520  165.6113 H   0  0  0  0  0  0  0  0  0  0  0  0
   -4.4305   48.9656  165.0747 H   0  0  0  0  0  0  0  0  0  0  0  0
   -4.0207   49.1556  163.3559 H   0  0  0  0  0  0  0  0  0  0  0  0
   -6.5313   49.9525  164.7526 H   0  0  0  0  0  0  0  0  0  0  0  0
   -6.2107   49.8482  163.0143 H   0  0  0  0  0  0  0  0  0  0  0  0
   -5.9756   52.1968  164.8777 H   0  0  0  0  0  0  0  0  0  0  0  0
   -7.4159   51.9279  163.0456 H   0  0  0  0  0  0  0  0  0  0  0  0
   -2.8087   51.9149  161.8814 H   0  0  0  0  0  0  0  0  0  0  0  0
   -4.3376   52.7129  161.5580 H   0  0  0  0  0  0  0  0  0  0  0  0
   -4.2701   50.9594  161.6948 H   0  0  0  0  0  0  0  0  0  0  0  0
  1  2  2  0  0  0  0
  1 11  1  0  0  0  0
  2  3  1  0  0  0  0
  3  4  1  0  0  0  0
  3  5  2  0  0  0  0
  5  6  1  0  0  0  0
  6  7  1  0  0  0  0
  6 11  2  0  0  0  0
  7  8  1  0  0  0  0
  8  9  1  0  0  0  0
  9 10  1  0  0  0  0
  9 15  1  0  0  0  0
 10 11  1  0  0  0  0
 10 12  1  0  0  0  0
 12 13  1  0  0  0  0
 13 14  1  0  0  0  0
 14 15  1  0  0  0  0
 14 18  1  0  0  0  0
 14 20  1  0  0  0  0
 15 16  1  0  0  0  0
 16 17  1  0  0  0  0
 17 18  1  0  0  0  0
 18 19  1  0  0  0  0
  1 21  1  0  0  0  0
  2 22  1  0  0  0  0
  4 23  1  0  0  0  0
  5 24  1  0  0  0  0
  7 25  1  0  0  0  0
  7 26  1  0  0  0  0
  8 27  1  0  0  0  0
  8 28  1  0  0  0  0
  9 29  1  0  0  0  0
 10 30  1  0  0  0  0
 12 31  1  0  0  0  0
 12 32  1  0  0  0  0
 13 33  1  0  0  0  0
 13 34  1  0  0  0  0
 15 35  1  0  0  0  0
 16 36  1  0  0  0  0
 16 37  1  0  0  0  0
 17 38  1  0  0  0  0
 17 39  1  0  0  0  0
 18 40  1  0  0  0  0
 19 41  1  0  0  0  0
 20 42  1  0  0  0  0
 20 43  1  0  0  0  0
 20 44  1  0  0  0  0
M  END
$$$$
